@<TRIPOS>MOLECULE
EYH
   65    69     1     0     0
SMALL
No Charge or Current Charge


@<TRIPOS>ATOM
      1 C1           2.5440     0.7810     0.4790 cc         1 EYH       0.475000
      2 C12         -1.0660     0.1630     0.8800 c5         1 EYH       0.258300
      3 C14         -1.5320    -0.6130    -0.3680 ca         1 EYH      -0.108300
      4 C15         -3.0370     1.8320     1.0380 ca         1 EYH      -0.031000
      5 C16         -2.4400    -1.7000    -0.2440 ca         1 EYH      -0.045300
      6 C17         -2.8620    -2.3970    -1.3930 ca         1 EYH      -0.110000
      7 C18         -2.4030    -2.0250    -2.6630 ca         1 EYH       0.133000
      8 C19         -1.5220    -0.9470    -2.8000 ca         1 EYH      -0.113000
      9 C20         -1.0930    -0.2440    -1.6640 ca         1 EYH      -0.076000
     10 C21         -3.4690     2.7010     2.0750 ca         1 EYH      -0.066300
     11 C22         -4.8270     3.0690     2.1570 ca         1 EYH      -0.105000
     12 C23         -5.7500     2.6140     1.2010 ca         1 EYH      -0.097000
     13 C24         -5.3150     1.8010     0.1470 ca         1 EYH       0.115000
     14 C25         -3.9660     1.4310     0.0540 ca         1 EYH      -0.087000
     15 C26         -2.5160     3.1990     3.1590 c3         1 EYH      -0.049800
     16 C29         -2.9830    -2.1340     1.1150 c3         1 EYH      -0.055800
     17 C30          4.8320     1.3790     1.2060 ca         1 EYH       0.195900
     18 N2           1.9960     1.9950     0.4060 nd         1 EYH      -0.575000
     19 N3           1.5850    -0.2140     0.7250 na         1 EYH      -0.119500
     20 C4           1.8230    -1.6260     1.1060 c3         1 EYH       0.091300
     21 C5           1.4160    -1.9040     2.5680 c3         1 EYH      -0.111100
     22 C6           1.1780    -2.6330     0.1300 c3         1 EYH      -0.111100
     23 C7           3.9820     0.5730     0.4390 ca         1 EYH      -0.311500
     24 C8           0.3860     0.4590     0.6730 cc         1 EYH      -0.204300
     25 C9           0.6420     1.7610     0.5360 cd         1 EYH       0.169500
     26 C10         -0.6320     2.5230     0.6010 c          1 EYH       0.517500
     27 N11         -1.6410     1.5460     0.8400 n          1 EYH      -0.273400
     28 O13         -0.7990     3.7330     0.4810 o          1 EYH      -0.499000
     29 Cl2         -6.4570     1.2610    -1.0770 cl         1 EYH      -0.199000
     30 Cl3         -2.9420    -2.9060    -4.0860 cl         1 EYH      -0.197000
     31 N31          6.1680     1.2380     1.1620 nb         1 EYH      -0.284000
     32 C32          6.6660     0.3040     0.3240 ca         1 EYH       0.405300
     33 N33          5.9260    -0.4800    -0.4800 nb         1 EYH      -0.291000
     34 C34          4.5870    -0.3420    -0.4350 ca         1 EYH       0.412300
     35 O35          3.7840    -1.0710    -1.2830 os         1 EYH      -0.439300
     36 C36          4.3380    -2.0490    -2.1860 c3         1 EYH       0.155900
     37 O37          8.0300     0.1230     0.2510 os         1 EYH      -0.430300
     38 C38          8.9390     0.8990     1.0590 c3         1 EYH       0.162900
     39 H1          -1.2500    -0.3400     1.8370 h1         1 EYH       0.074700
     40 H2          -3.5530    -3.2320    -1.3050 ha         1 EYH       0.131000
     41 H3          -1.1720    -0.6550    -3.7870 ha         1 EYH       0.135000
     42 H4          -0.4150     0.5950    -1.8040 ha         1 EYH       0.134000
     43 H5          -5.1710     3.7120     2.9640 ha         1 EYH       0.119000
     44 H6          -6.7960     2.9030     1.2700 ha         1 EYH       0.130000
     45 H7          -3.6480     0.8400    -0.7980 ha         1 EYH       0.142000
     46 H8          -2.0510     4.1490     2.8710 hc         1 EYH       0.048700
     47 H9          -3.0430     3.3670     4.1060 hc         1 EYH       0.048700
     48 H10         -1.7170     2.4770     3.3650 hc         1 EYH       0.048700
     49 H11         -3.4640    -1.2970     1.6350 hc         1 EYH       0.048700
     50 H12         -3.7330    -2.9280     1.0190 hc         1 EYH       0.048700
     51 H13         -2.1810    -2.5200     1.7550 hc         1 EYH       0.048700
     52 H15          2.9050    -1.7950     1.0570 h1         1 EYH       0.069700
     53 H16          1.7050    -2.9200     2.8610 hc         1 EYH       0.052033
     54 H17          1.9140    -1.2000     3.2460 hc         1 EYH       0.052033
     55 H18          0.3330    -1.8060     2.7050 hc         1 EYH       0.052033
     56 H19          1.3870    -2.3600    -0.9110 hc         1 EYH       0.052033
     57 H20          1.5770    -3.6400     0.3050 hc         1 EYH       0.052033
     58 H21          0.0940    -2.6780     0.2660 hc         1 EYH       0.052033
     59 H22          5.0380    -1.5810    -2.8890 h1         1 EYH       0.055367
     60 H23          4.8700    -2.8340    -1.6330 h1         1 EYH       0.055367
     61 H24          3.5390    -2.5260    -2.7680 h1         1 EYH       0.055367
     62 H25          8.8410     1.9710     0.8410 h1         1 EYH       0.053033
     63 H26          8.7450     0.7420     2.1280 h1         1 EYH       0.053033
     64 H27          9.9760     0.6060     0.8560 h1         1 EYH       0.053033
     65 H14          4.4430     2.1390     1.8820 h4         1 EYH       0.034100
@<TRIPOS>BOND
     1     1    18 2   
     2     1    19 1   
     3     1    23 1   
     4     2     3 1   
     5     2    24 1   
     6     2    27 1   
     7     2    39 1   
     8     3     5 ar  
     9     3     9 ar  
    10     4    10 ar  
    11     4    14 ar  
    12     4    27 1   
    13     5     6 ar  
    14     5    16 1   
    15     6     7 ar  
    16     6    40 1   
    17     7     8 ar  
    18     7    30 1   
    19     8     9 ar  
    20     8    41 1   
    21     9    42 1   
    22    10    11 ar  
    23    10    15 1   
    24    11    12 ar  
    25    11    43 1   
    26    12    13 ar  
    27    12    44 1   
    28    13    14 ar  
    29    13    29 1   
    30    14    45 1   
    31    15    46 1   
    32    15    47 1   
    33    15    48 1   
    34    16    49 1   
    35    16    50 1   
    36    16    51 1   
    37    17    23 ar  
    38    17    31 ar  
    39    17    65 1   
    40    18    25 1   
    41    19    20 1   
    42    19    24 1   
    43    20    21 1   
    44    20    22 1   
    45    20    52 1   
    46    21    53 1   
    47    21    54 1   
    48    21    55 1   
    49    22    56 1   
    50    22    57 1   
    51    22    58 1   
    52    23    34 ar  
    53    24    25 2   
    54    25    26 1   
    55    26    27 1   
    56    26    28 2   
    57    31    32 ar  
    58    32    33 ar  
    59    32    37 1   
    60    33    34 ar  
    61    34    35 1   
    62    35    36 1   
    63    36    59 1   
    64    36    60 1   
    65    36    61 1   
    66    37    38 1   
    67    38    62 1   
    68    38    63 1   
    69    38    64 1   
@<TRIPOS>SUBSTRUCTURE
     1 EYH         1 TEMP              0 ****  ****    0 ROOT
