@<TRIPOS>MOLECULE
EYI
   48    52     1     0     0
SMALL
bcc


@<TRIPOS>ATOM
      1 N1           2.1640     0.5970    -6.8380 nc         1 EYI      -0.673000
      2 C2          -0.7260     0.1350    -7.0640 ca         1 EYI      -0.082500
      3 N3           1.4530    -3.3180    -1.6880 nb         1 EYI      -0.676000
      4 C4          -0.7410    -0.0910    -4.6780 ca         1 EYI      -0.082500
      5 C5          -0.0180    -0.0150    -5.8700 ca         1 EYI      -0.118500
      6 C6           1.4440    -0.0780    -5.8950 cc         1 EYI       0.380800
      7 C           -2.7900     0.0840    -5.8790 ca         1 EYI       0.132900
      8 C3          -2.1260    -0.0490    -4.6750 ca         1 EYI      -0.177000
      9 C1          -2.1120     0.1840    -7.0780 ca         1 EYI      -0.177000
     10 C14          3.4190     0.3450    -6.5740 cd         1 EYI       0.398400
     11 N            3.5650    -0.4600    -5.5030 na         1 EYI      -0.171900
     12 C8           4.8380    -0.9680    -5.0000 c6         1 EYI       0.047000
     13 C13          5.6830     0.1550    -4.4050 c6         1 EYI      -0.087400
     14 C12          6.9890    -0.3990    -3.8450 c6         1 EYI      -0.073900
     15 C11          7.7640    -1.1810    -4.8990 c6         1 EYI      -0.078400
     16 C10          6.9040    -2.2850    -5.5070 c6         1 EYI      -0.073900
     17 C9           5.6060    -1.7260    -6.0800 c6         1 EYI      -0.087400
     18 C7           2.3000    -0.7530    -5.0500 cd         1 EYI      -0.160600
     19 C15          2.0230    -1.6310    -3.9150 ca         1 EYI       0.068000
     20 C21          2.5490    -1.4020    -2.6470 ca         1 EYI      -0.277300
     21 C20          2.2430    -2.2590    -1.5880 ca         1 EYI       0.417200
     22 C17          0.9560    -3.5270    -2.8960 ca         1 EYI       0.429800
     23 N2           0.1280    -4.5470    -3.2510 na         1 EYI      -0.277100
     24 C18         -0.1650    -4.4420    -4.5830 cc         1 EYI      -0.102100
     25 C19          0.4640    -3.3560    -5.1180 cd         1 EYI      -0.172200
     26 C16          1.1910    -2.7470    -4.0530 ca         1 EYI      -0.184100
     27 H1          -0.1880     0.2050    -8.0000 ha         1 EYI       0.144000
     28 H2          -0.2220    -0.1710    -3.7330 ha         1 EYI       0.144000
     29 H3          -2.6790    -0.1070    -3.7460 ha         1 EYI       0.147000
     30 H4          -2.6530     0.2940    -8.0090 ha         1 EYI       0.147000
     31 H5           4.2620     0.7230    -7.1330 h5         1 EYI       0.056100
     32 H6           4.5980    -1.6750    -4.2040 h1         1 EYI       0.077700
     33 H7           5.8980     0.8970    -5.1810 hc         1 EYI       0.052450
     34 H8           5.1180     0.6670    -3.6220 hc         1 EYI       0.052450
     35 H9           6.7650    -1.0570    -2.9980 hc         1 EYI       0.046200
     36 H10          7.5960     0.4180    -3.4510 hc         1 EYI       0.046200
     37 H11          8.6690    -1.6070    -4.4610 hc         1 EYI       0.044200
     38 H12          8.0930    -0.5000    -5.6910 hc         1 EYI       0.044200
     39 H13          6.6710    -3.0290    -4.7380 hc         1 EYI       0.046200
     40 H14          7.4550    -2.8100    -6.2900 hc         1 EYI       0.046200
     41 H15          5.8400    -1.0540    -6.9110 hc         1 EYI       0.052450
     42 H16          4.9820    -2.5300    -6.4780 hc         1 EYI       0.052450
     43 H17          3.1870    -0.5480    -2.4620 ha         1 EYI       0.141000
     44 H18          2.6620    -2.0610    -0.6080 h4         1 EYI       0.020100
     45 H19         -0.2070    -5.2680    -2.6330 hn         1 EYI       0.311700
     46 H20         -0.8110    -5.1630    -5.0570 h4         1 EYI       0.167000
     47 H21          0.4070    -3.0320    -6.1440 ha         1 EYI       0.168000
     48 F           -4.1330     0.1220    -5.8830 f          1 EYI      -0.147900
@<TRIPOS>BOND
     1     1     6 1   
     2     1    10 2   
     3     2     5 ar  
     4     2     9 ar  
     5     2    27 1   
     6     3    21 ar  
     7     3    22 ar  
     8     4     5 ar  
     9     4     8 ar  
    10     4    28 1   
    11     5     6 1   
    12     6    18 2   
    13     7     8 ar  
    14     7     9 ar  
    15     7    48 1   
    16     8    29 1   
    17     9    30 1   
    18    10    11 1   
    19    10    31 1   
    20    11    12 1   
    21    11    18 1   
    22    12    13 1   
    23    12    17 1   
    24    12    32 1   
    25    13    14 1   
    26    13    33 1   
    27    13    34 1   
    28    14    15 1   
    29    14    35 1   
    30    14    36 1   
    31    15    16 1   
    32    15    37 1   
    33    15    38 1   
    34    16    17 1   
    35    16    39 1   
    36    16    40 1   
    37    17    41 1   
    38    17    42 1   
    39    18    19 1   
    40    19    20 ar  
    41    19    26 ar  
    42    20    21 ar  
    43    20    43 1   
    44    21    44 1   
    45    22    23 1   
    46    22    26 ar  
    47    23    24 1   
    48    23    45 1   
    49    24    25 2   
    50    24    46 1   
    51    25    26 1   
    52    25    47 1   
@<TRIPOS>SUBSTRUCTURE
     1 EYI         1 TEMP              0 ****  ****    0 ROOT
