@<TRIPOS>MOLECULE
EYI
   48    52     1     0     0
SMALL
No Charge or Current Charge


@<TRIPOS>ATOM
      1 N1           2.1800     0.5000    -6.9550 nc         1 EYI      -0.673000
      2 C2          -0.7390    -0.2150    -7.0730 ca         1 EYI      -0.064500
      3 N3           1.3420    -3.4040    -1.7450 nb         1 EYI      -0.676000
      4 C4          -0.6270     0.0020    -4.6520 ca         1 EYI      -0.064500
      5 C5           0.0330    -0.1600    -5.8910 ca         1 EYI      -0.118500
      6 C6           1.5000    -0.1620    -5.9750 cc         1 EYI       0.315500
      7 C           -2.7850    -0.0560    -5.7700 ca         1 EYI       0.168000
      8 C3          -2.0310     0.0410    -4.5920 ca         1 EYI      -0.159000
      9 C1          -2.1430    -0.1760    -7.0110 ca         1 EYI      -0.159000
     10 C14          3.4590     0.3400    -6.6530 cd         1 EYI       0.398400
     11 N            3.5960    -0.4270    -5.5000 na         1 EYI      -0.150500
     12 C8           4.8890    -0.9410    -4.9810 c6         1 EYI       0.076300
     13 C13          5.7170     0.2030    -4.3370 c6         1 EYI      -0.087400
     14 C12          7.0590    -0.3300    -3.7760 c6         1 EYI      -0.073900
     15 C11          7.8750    -1.0600    -4.8720 c6         1 EYI      -0.078400
     16 C10          7.0480    -2.1950    -5.5270 c6         1 EYI      -0.073900
     17 C9           5.7090    -1.6570    -6.0900 c6         1 EYI      -0.087400
     18 C7           2.3210    -0.7360    -5.0270 cd         1 EYI      -0.146000
     19 C15          1.9930    -1.6670    -3.9230 ca         1 EYI       0.068000
     20 C21          2.6540    -1.5810    -2.6810 ca         1 EYI      -0.194000
     21 C20          2.3000    -2.4520    -1.6310 ca         1 EYI       0.351900
     22 C17          0.7230    -3.4950    -2.9350 ca         1 EYI       0.364500
     23 N2          -0.2480    -4.3900    -3.3440 na         1 EYI      -0.327400
     24 C18         -0.5890    -4.2130    -4.7020 cc         1 EYI      -0.152100
     25 C19          0.2080    -3.1580    -5.1050 cd         1 EYI      -0.222200
     26 C16          1.0160    -2.6780    -4.0060 ca         1 EYI      -0.118800
     27 H1          -0.2490    -0.3040    -8.0400 ha         1 EYI       0.126000
     28 H2          -0.0550     0.1000    -3.7320 ha         1 EYI       0.126000
     29 H3          -2.5340     0.1520    -3.6350 ha         1 EYI       0.129000
     30 H4          -2.7330    -0.2360    -7.9220 ha         1 EYI       0.129000
     31 H5           4.3100     0.7130    -7.2110 h5         1 EYI       0.056100
     32 H6           4.6840    -1.6930    -4.2100 h1         1 EYI       0.077700
     33 H7           5.9150     0.9890    -5.0780 hc         1 EYI       0.052450
     34 H8           5.1410     0.6750    -3.5290 hc         1 EYI       0.052450
     35 H9           6.8640    -1.0170    -2.9400 hc         1 EYI       0.046200
     36 H10          7.6480     0.5010    -3.3640 hc         1 EYI       0.046200
     37 H11          8.7960    -1.4730    -4.4380 hc         1 EYI       0.044200
     38 H12          8.1880    -0.3400    -5.6410 hc         1 EYI       0.044200
     39 H13          6.8500    -2.9840    -4.7870 hc         1 EYI       0.046200
     40 H14          7.6310    -2.6640    -6.3320 hc         1 EYI       0.046200
     41 H15          5.9190    -0.9700    -6.9210 hc         1 EYI       0.052450
     42 H16          5.1240    -2.4880    -6.5090 hc         1 EYI       0.052450
     43 H17          3.4100    -0.8220    -2.5060 ha         1 EYI       0.123000
     44 H18          2.7960    -2.3800    -0.6640 h4         1 EYI       0.020100
     45 H19         -0.6420    -5.0910    -2.7280 hn         1 EYI       0.362000
     46 H20         -1.3120    -4.8260    -5.2370 h4         1 EYI       0.217000
     47 H21          0.2370    -2.7790    -6.1240 ha         1 EYI       0.218000
     48 F           -4.1330    -0.0160    -5.7110 f          1 EYI      -0.183000
@<TRIPOS>BOND
     1     1     6 1   
     2     1    10 2   
     3     2     5 ar  
     4     2     9 ar  
     5     2    27 1   
     6     3    21 ar  
     7     3    22 ar  
     8     4     5 ar  
     9     4     8 ar  
    10     4    28 1   
    11     5     6 1   
    12     6    18 2   
    13     7     8 ar  
    14     7     9 ar  
    15     7    48 1   
    16     8    29 1   
    17     9    30 1   
    18    10    11 1   
    19    10    31 1   
    20    11    12 1   
    21    11    18 1   
    22    12    13 1   
    23    12    17 1   
    24    12    32 1   
    25    13    14 1   
    26    13    33 1   
    27    13    34 1   
    28    14    15 1   
    29    14    35 1   
    30    14    36 1   
    31    15    16 1   
    32    15    37 1   
    33    15    38 1   
    34    16    17 1   
    35    16    39 1   
    36    16    40 1   
    37    17    41 1   
    38    17    42 1   
    39    18    19 1   
    40    19    20 ar  
    41    19    26 ar  
    42    20    21 ar  
    43    20    43 1   
    44    21    44 1   
    45    22    23 1   
    46    22    26 ar  
    47    23    24 1   
    48    23    45 1   
    49    24    25 2   
    50    24    46 1   
    51    25    26 1   
    52    25    47 1   
@<TRIPOS>SUBSTRUCTURE
     1 EYI         1 TEMP              0 ****  ****    0 ROOT
