@<TRIPOS>MOLECULE
EYJ
   22    23     1     0     0
SMALL
No Charge or Current Charge


@<TRIPOS>ATOM
      1 C1           2.5910    -0.2410    -0.5650 c3         1 EYJ      -0.212400
      2 C2           1.7170     0.0330     0.6900 c3         1 EYJ      -0.093700
      3 C3           0.2360     0.0190     0.4130 cc         1 EYJ       0.457200
      4 C6          -4.1950    -1.2010    -0.0010 ca         1 EYJ      -0.124000
      5 C4          -1.8260    -0.7380     0.2880 ca         1 EYJ       0.108400
      6 O1           4.6580     0.8690    -0.2310 o          1 EYJ      -0.733500
      7 C            4.0820    -0.2070    -0.1920 c          1 EYJ       0.722000
      8 O            4.6030    -1.2430     0.1880 o          1 EYJ      -0.733500
      9 S           -0.5450     1.4740    -0.2510 ss         1 EYJ      -0.007200
     10 C9          -2.0280     0.5370    -0.2030 ca         1 EYJ      -0.196000
     11 N           -0.5240    -1.0620     0.6510 nd         1 EYJ      -0.569100
     12 C8          -3.2950     0.9870    -0.6050 ca         1 EYJ      -0.072000
     13 C7          -4.3860     0.1050    -0.5010 ca         1 EYJ      -0.125000
     14 C5          -2.9100    -1.6260     0.3950 ca         1 EYJ      -0.067000
     15 H1           2.3060    -1.2410    -0.9160 hc         1 EYJ       0.026200
     16 H2           2.3560     0.5600    -1.2770 hc         1 EYJ       0.026200
     17 H3           1.9490    -0.7120     1.4610 hc         1 EYJ       0.075200
     18 H4           1.9900     1.0060     1.1150 hc         1 EYJ       0.075200
     19 H5          -5.0390    -1.8810     0.0780 ha         1 EYJ       0.102000
     20 H7          -3.4320     1.9960    -0.9880 ha         1 EYJ       0.114000
     21 H8          -5.3780     0.4300    -0.8060 ha         1 EYJ       0.100000
     22 H9          -2.7580    -2.6310     0.7800 ha         1 EYJ       0.124000
@<TRIPOS>BOND
     1     1     2 1   
     2     1     7 1   
     3     1    15 1   
     4     1    16 1   
     5     2     3 1   
     6     2    17 1   
     7     2    18 1   
     8     3     9 1   
     9     3    11 2   
    10     4    13 ar  
    11     4    14 ar  
    12     4    19 1   
    13     5    10 ar  
    14     5    11 1   
    15     5    14 ar  
    16     6     7 1   
    17     7     8 1   
    18     9    10 1   
    19    10    12 ar  
    20    12    13 ar  
    21    12    20 1   
    22    13    21 1   
    23    14    22 1   
@<TRIPOS>SUBSTRUCTURE
     1 EYJ         1 TEMP              0 ****  ****    0 ROOT
