@<TRIPOS>MOLECULE
EYJ
   22    23     1     0     0
SMALL
abcg2


@<TRIPOS>ATOM
      1 C1           2.5750     0.0330    -0.4830 c3         1 EYJ      -0.212400
      2 C2           1.7100    -0.2270     0.7470 c3         1 EYJ      -0.093700
      3 C3           0.2510    -0.1820     0.4500 cc         1 EYJ       0.457200
      4 C6          -4.2090    -1.1480     0.0150 ca         1 EYJ      -0.124000
      5 C4          -1.8600    -0.8040     0.3010 ca         1 EYJ       0.108400
      6 O1           4.8180     0.1930    -1.2120 o          1 EYJ      -0.733500
      7 C            4.0930    -0.0590    -0.2290 c          1 EYJ       0.722000
      8 O            4.4710    -0.3760     0.9150 o          1 EYJ      -0.733500
      9 S           -0.4580     1.2630    -0.2530 ss         1 EYJ      -0.007200
     10 C9          -2.0050     0.4870    -0.2320 ca         1 EYJ      -0.196000
     11 N           -0.5770    -1.1410     0.6700 nd         1 EYJ      -0.569100
     12 C8          -3.2390     0.9720    -0.6480 ca         1 EYJ      -0.072000
     13 C7          -4.3400     0.1400    -0.5140 ca         1 EYJ      -0.125000
     14 C5          -2.9780    -1.6290     0.4220 ca         1 EYJ      -0.067000
     15 H1           2.3110    -0.6740    -1.2760 hc         1 EYJ       0.026200
     16 H2           2.3610     1.0250    -0.8950 hc         1 EYJ       0.026200
     17 H3           1.9270    -1.2090     1.1670 hc         1 EYJ       0.075200
     18 H4           1.9350     0.5090     1.5220 hc         1 EYJ       0.075200
     19 H5          -5.0850    -1.7760     0.1080 ha         1 EYJ       0.102000
     20 H7          -3.3430     1.9680    -1.0600 ha         1 EYJ       0.114000
     21 H8          -5.3130     0.4950    -0.8250 ha         1 EYJ       0.100000
     22 H9          -2.8730    -2.6250     0.8330 ha         1 EYJ       0.124000
@<TRIPOS>BOND
     1     1     2 1   
     2     1     7 1   
     3     1    15 1   
     4     1    16 1   
     5     2     3 1   
     6     2    17 1   
     7     2    18 1   
     8     3     9 1   
     9     3    11 2   
    10     4    13 ar  
    11     4    14 ar  
    12     4    19 1   
    13     5    10 ar  
    14     5    11 1   
    15     5    14 ar  
    16     6     7 1   
    17     7     8 1   
    18     9    10 1   
    19    10    12 ar  
    20    12    13 ar  
    21    12    20 1   
    22    13    21 1   
    23    14    22 1   
@<TRIPOS>SUBSTRUCTURE
     1 EYJ         1 TEMP              0 ****  ****    0 ROOT
