@<TRIPOS>MOLECULE
EYK
   26    26     1     0     0
SMALL
No Charge or Current Charge


@<TRIPOS>ATOM
      1 CAA          1.6770     2.1580    -0.0560 c3         1 EYK      -0.087433
      2 CAL          1.6290     0.6010     0.0070 c3         1 EYK       0.002300
      3 CAB          2.4180     0.0900    -1.2340 c3         1 EYK      -0.087433
      4 CAC          2.3630     0.1950     1.3180 c3         1 EYK      -0.087433
      5 CAK          0.1650     0.0360    -0.0010 ca         1 EYK      -0.109300
      6 CAH         -0.9510     0.9190    -0.0620 ca         1 EYK      -0.168000
      7 CAI         -2.2820     0.3890    -0.0690 ca         1 EYK       0.100100
      8 OAD         -3.3540     1.2370    -0.1270 oh         1 EYK      -0.536100
      9 CAF         -2.5400    -1.0100    -0.0170 ca         1 EYK      -0.108000
     10 CAG         -1.4370    -1.8710     0.0430 ca         1 EYK      -0.113000
     11 CAJ         -0.1190    -1.3700     0.0510 ca         1 EYK       0.111100
     12 OAE          0.8760    -2.3000     0.1110 oh         1 EYK      -0.549100
     13 HAA          1.2090     2.5330    -0.9750 hc         1 EYK       0.037144
     14 HAAA         1.1700     2.6070     0.8070 hc         1 EYK       0.037144
     15 HAAB         2.7120     2.5210    -0.0490 hc         1 EYK       0.037144
     16 HAB          3.4060     0.5640    -1.2910 hc         1 EYK       0.037144
     17 HABA         2.5880    -0.9910    -1.2160 hc         1 EYK       0.037144
     18 HABB         1.8780     0.3310    -2.1580 hc         1 EYK       0.037144
     19 HAC          1.7840     0.5110     2.1950 hc         1 EYK       0.037144
     20 HACA         2.5320    -0.8820     1.3980 hc         1 EYK       0.037144
     21 HACB         3.3480     0.6750     1.3790 hc         1 EYK       0.037144
     22 HAH         -0.8360     1.9970    -0.1040 ha         1 EYK       0.110000
     23 HOAD        -3.0450     2.1690    -0.1590 ho         1 EYK       0.460000
     24 HAF         -3.5560    -1.3950    -0.0230 ha         1 EYK       0.131000
     25 HAG         -1.6030    -2.9450     0.0840 ha         1 EYK       0.130000
     26 HOAE         1.7300    -1.8220     0.1090 ho         1 EYK       0.466000
@<TRIPOS>BOND
     1     1     2 1   
     2     1    13 1   
     3     1    14 1   
     4     1    15 1   
     5     2     3 1   
     6     2     4 1   
     7     2     5 1   
     8     3    16 1   
     9     3    17 1   
    10     3    18 1   
    11     4    19 1   
    12     4    20 1   
    13     4    21 1   
    14     5     6 ar  
    15     5    11 ar  
    16     6     7 ar  
    17     6    22 1   
    18     7     8 1   
    19     7     9 ar  
    20     8    23 1   
    21     9    10 ar  
    22     9    24 1   
    23    10    11 ar  
    24    10    25 1   
    25    11    12 1   
    26    12    26 1   
@<TRIPOS>SUBSTRUCTURE
     1 EYK         1 TEMP              0 ****  ****    0 ROOT
