@<TRIPOS>MOLECULE
EYK
   26    26     1     0     0
SMALL
abcg2


@<TRIPOS>ATOM
      1 CAA          1.6050     2.1220    -0.0620 c3         1 EYK      -0.087433
      2 CAL          1.6050     0.5910     0.0070 c3         1 EYK       0.002300
      3 CAB          2.3910     0.1090    -1.2250 c3         1 EYK      -0.087433
      4 CAC          2.3330     0.2210     1.3110 c3         1 EYK      -0.087433
      5 CAK          0.1830     0.0150     0.0010 ca         1 EYK      -0.109300
      6 CAH         -0.9230     0.8680    -0.0560 ca         1 EYK      -0.168000
      7 CAI         -2.2330     0.4080    -0.0680 ca         1 EYK       0.100100
      8 OAD         -3.2970     1.2460    -0.1240 oh         1 EYK      -0.536100
      9 CAF         -2.4730    -0.9580    -0.0210 ca         1 EYK      -0.108000
     10 CAG         -1.3970    -1.8240     0.0370 ca         1 EYK      -0.113000
     11 CAJ         -0.0840    -1.3630     0.0490 ca         1 EYK       0.111100
     12 OAE          0.8580    -2.3430     0.1100 oh         1 EYK      -0.549100
     13 HAA          1.1330     2.4930    -0.9730 hc         1 EYK       0.037144
     14 HAAA         1.1060     2.5760     0.7960 hc         1 EYK       0.037144
     15 HAAB         2.6360     2.4770    -0.0630 hc         1 EYK       0.037144
     16 HAB          3.4010     0.5200    -1.2040 hc         1 EYK       0.037144
     17 HABA         2.4970    -0.9720    -1.3070 hc         1 EYK       0.037144
     18 HABB         1.9090     0.4530    -2.1410 hc         1 EYK       0.037144
     19 HAC          1.7990     0.6260     2.1730 hc         1 EYK       0.037144
     20 HACA         2.4510    -0.8490     1.4830 hc         1 EYK       0.037144
     21 HACB         3.3360     0.6500     1.3080 hc         1 EYK       0.037144
     22 HAH         -0.7660     1.9380    -0.0940 ha         1 EYK       0.110000
     23 HOAD        -2.9980     2.1610    -0.1390 ho         1 EYK       0.460000
     24 HAF         -3.4850    -1.3410    -0.0290 ha         1 EYK       0.131000
     25 HAG         -1.5720    -2.8930     0.0740 ha         1 EYK       0.130000
     26 HOAE         1.7480    -1.9840     0.1170 ho         1 EYK       0.466000
@<TRIPOS>BOND
     1     1     2 1   
     2     1    13 1   
     3     1    14 1   
     4     1    15 1   
     5     2     3 1   
     6     2     4 1   
     7     2     5 1   
     8     3    16 1   
     9     3    17 1   
    10     3    18 1   
    11     4    19 1   
    12     4    20 1   
    13     4    21 1   
    14     5     6 ar  
    15     5    11 ar  
    16     6     7 ar  
    17     6    22 1   
    18     7     8 1   
    19     7     9 ar  
    20     8    23 1   
    21     9    10 ar  
    22     9    24 1   
    23    10    11 ar  
    24    10    25 1   
    25    11    12 1   
    26    12    26 1   
@<TRIPOS>SUBSTRUCTURE
     1 EYK         1 TEMP              0 ****  ****    0 ROOT
