@<TRIPOS>MOLECULE
EYL
   33    35     1     0     0
SMALL
bcc


@<TRIPOS>ATOM
      1 C4           0.6120    -9.1370    10.4980 c3         1 EYL       0.103600
      2 C6           2.7330    -9.8320    11.6710 ca         1 EYL      -0.106000
      3 C8           4.7480   -10.3120    10.4470 ca         1 EYL      -0.119000
      4 C2           0.3240    -5.9450    12.2480 ca         1 EYL      -0.156100
      5 C1           0.6160    -4.5800    12.1830 ca         1 EYL      -0.072600
      6 C11         -0.2200    -8.0770    12.6200 cc         1 EYL      -0.099100
      7 C10          2.7570    -9.6280     9.2830 ca         1 EYL      -0.106000
      8 C9           4.0910   -10.0190     9.2610 ca         1 EYL      -0.130000
      9 C7           4.0650   -10.2160    11.6530 ca         1 EYL      -0.130000
     10 C14          1.2120    -4.1100    11.0210 ca         1 EYL      -0.257300
     11 C13          1.5100    -4.9920     9.9780 ca         1 EYL       0.412200
     12 C12         -0.2580    -6.8390    13.1920 cd         1 EYL      -0.169200
     13 O           -0.7970    -3.8450    13.9450 o          1 EYL      -0.563100
     14 C            0.2340    -3.6860    13.3160 c          1 EYL       0.687700
     15 N            1.1390    -2.7310    13.5880 ns         1 EYL      -0.459400
     16 O1           0.8540    -1.7540    14.4880 oh         1 EYL      -0.376100
     17 N2           1.2640    -6.2920    10.0150 nb         1 EYL      -0.659000
     18 C3           0.6920    -6.7250    11.1240 ca         1 EYL       0.428800
     19 N1           0.3440    -8.0180    11.3740 na         1 EYL      -0.161100
     20 C5           2.0670    -9.5350    10.4850 ca         1 EYL      -0.110300
     21 H1           0.2810    -8.8840     9.4900 h1         1 EYL       0.067700
     22 H2          -0.0090    -9.9680    10.8370 h1         1 EYL       0.067700
     23 H3           2.2100    -9.7640    12.6190 ha         1 EYL       0.132000
     24 H4           5.7880   -10.6130    10.4330 ha         1 EYL       0.131000
     25 H5          -0.5670    -9.0220    13.0110 h4         1 EYL       0.166000
     26 H7           2.2510    -9.3920     8.3540 ha         1 EYL       0.132000
     27 H8           4.6160   -10.0870     8.3170 ha         1 EYL       0.132500
     28 H9           4.5720   -10.4450    12.5830 ha         1 EYL       0.132500
     29 H10          1.4340    -3.0590    10.8860 ha         1 EYL       0.140000
     30 H11          1.9680    -4.6110     9.0720 h4         1 EYL       0.022100
     31 H12         -0.6630    -6.6050    14.1620 ha         1 EYL       0.175000
     32 H14          1.9980    -2.6100    13.0700 hn         1 EYL       0.343500
     33 H15          1.1920    -2.0590    15.3410 ho         1 EYL       0.401000
@<TRIPOS>BOND
     1     1    19 1   
     2     1    20 1   
     3     1    21 1   
     4     1    22 1   
     5     2     9 ar  
     6     2    20 ar  
     7     2    23 1   
     8     3     8 ar  
     9     3     9 ar  
    10     3    24 1   
    11     4     5 ar  
    12     4    12 1   
    13     4    18 ar  
    14     5    10 ar  
    15     5    14 1   
    16     6    12 2   
    17     6    19 1   
    18     6    25 1   
    19     7     8 ar  
    20     7    20 ar  
    21     7    26 1   
    22     8    27 1   
    23     9    28 1   
    24    10    11 ar  
    25    10    29 1   
    26    11    17 ar  
    27    11    30 1   
    28    12    31 1   
    29    13    14 2   
    30    14    15 1   
    31    15    16 1   
    32    15    32 1   
    33    16    33 1   
    34    17    18 ar  
    35    18    19 1   
@<TRIPOS>SUBSTRUCTURE
     1 EYL         1 TEMP              0 ****  ****    0 ROOT
