@<TRIPOS>MOLECULE
EYL
   33    35     1     0     0
SMALL
No Charge or Current Charge


@<TRIPOS>ATOM
      1 C4           0.6690    -9.0210    10.3250 c3         1 EYL       0.132900
      2 C6           2.7220    -9.8940    11.5850 ca         1 EYL      -0.088000
      3 C8           4.6750   -10.7230    10.3890 ca         1 EYL      -0.101000
      4 C2           0.4950    -5.9530    12.2780 ca         1 EYL      -0.090800
      5 C1           0.7740    -4.5740    12.4190 ca         1 EYL      -0.072600
      6 C11         -0.2150    -8.1530    12.5840 cc         1 EYL      -0.149100
      7 C10          2.7440    -9.9020     9.1520 ca         1 EYL      -0.088000
      8 C9           4.0380   -10.4530     9.1660 ca         1 EYL      -0.112000
      9 C7           4.0160   -10.4440    11.5970 ca         1 EYL      -0.112000
     10 C14          1.4400    -3.9950    11.3060 ca         1 EYL      -0.174000
     11 C13          1.7630    -4.7860    10.1830 ca         1 EYL       0.346900
     12 C12         -0.1640    -6.8960    13.1580 cd         1 EYL      -0.219200
     13 O           -0.0670    -4.2820    14.6690 o          1 EYL      -0.563100
     14 C            0.4010    -3.7710    13.6580 c          1 EYL       0.620700
     15 N            0.6430    -2.4000    13.5960 ns         1 EYL      -0.392400
     16 O1           0.1100    -1.4990    14.6000 oh         1 EYL      -0.415100
     17 N2           1.4730    -6.1040    10.0910 nb         1 EYL      -0.659000
     18 C3           0.8450    -6.6670    11.1450 ca         1 EYL       0.363500
     19 N1           0.4210    -7.9810    11.3400 na         1 EYL      -0.190400
     20 C5           2.0780    -9.6140    10.3600 ca         1 EYL      -0.110300
     21 H1           0.4730    -8.5930     9.3340 h1         1 EYL       0.067700
     22 H2          -0.0570    -9.8300    10.4750 h1         1 EYL       0.067700
     23 H3           2.2240    -9.6880    12.5290 ha         1 EYL       0.114000
     24 H4           5.6760   -11.1490    10.3990 ha         1 EYL       0.113000
     25 H5          -0.6210    -9.0990    12.9350 h4         1 EYL       0.216000
     26 H7           2.2610    -9.6980     8.1990 ha         1 EYL       0.114000
     27 H8           4.5460   -10.6700     8.2290 ha         1 EYL       0.114500
     28 H9           4.5060   -10.6550    12.5450 ha         1 EYL       0.114500
     29 H10          1.7230    -2.9470    11.2880 ha         1 EYL       0.122000
     30 H11          2.2740    -4.3450     9.3280 h4         1 EYL       0.022100
     31 H12         -0.5730    -6.6700    14.1400 ha         1 EYL       0.225000
     32 H14          0.8780    -1.9800    12.6990 hn         1 EYL       0.343500
     33 H15          0.8910    -0.9570    14.8640 ho         1 EYL       0.440000
@<TRIPOS>BOND
     1     1    19 1   
     2     1    20 1   
     3     1    21 1   
     4     1    22 1   
     5     2     9 ar  
     6     2    20 ar  
     7     2    23 1   
     8     3     8 ar  
     9     3     9 ar  
    10     3    24 1   
    11     4     5 ar  
    12     4    12 1   
    13     4    18 ar  
    14     5    10 ar  
    15     5    14 1   
    16     6    12 2   
    17     6    19 1   
    18     6    25 1   
    19     7     8 ar  
    20     7    20 ar  
    21     7    26 1   
    22     8    27 1   
    23     9    28 1   
    24    10    11 ar  
    25    10    29 1   
    26    11    17 ar  
    27    11    30 1   
    28    12    31 1   
    29    13    14 2   
    30    14    15 1   
    31    15    16 1   
    32    15    32 1   
    33    16    33 1   
    34    17    18 ar  
    35    18    19 1   
@<TRIPOS>SUBSTRUCTURE
     1 EYL         1 TEMP              0 ****  ****    0 ROOT
