@<TRIPOS>MOLECULE
EYM
   28    29     1     0     0
SMALL
abcg2


@<TRIPOS>ATOM
      1 C8          -3.2510     2.5250    -0.0700 ca         1 EYM      -0.151000
      2 C5           4.2830     0.4570     0.0580 c          1 EYM       0.716000
      3 C6          -1.3890     0.9910    -0.0560 ca         1 EYM       0.084400
      4 N1          -0.0270     0.8110    -0.0630 nc         1 EYM      -0.536100
      5 C2           0.4570    -0.3730    -0.0520 cd         1 EYM       0.417300
      6 C4           2.7590     0.6720     0.0230 c3         1 EYM      -0.204400
      7 C1          -0.3920    -1.5910    -0.0350 c          1 EYM       0.419700
      8 C3           1.9360    -0.5980    -0.0560 c3         1 EYM      -0.094700
      9 O1           4.9720     1.4980     0.1080 o          1 EYM      -0.740000
     10 O            4.7130    -0.7130     0.0370 o          1 EYM      -0.740000
     11 C11         -2.2750    -0.0970    -0.0270 ca         1 EYM       0.047600
     12 N           -1.7430    -1.3740    -0.0100 n          1 EYM      -0.284000
     13 C           -2.6440    -2.5150     0.0300 c3         1 EYM       0.072300
     14 C10         -3.6520     0.1410    -0.0160 ca         1 EYM      -0.162000
     15 C9          -4.1260     1.4400    -0.0370 ca         1 EYM      -0.088000
     16 C7          -1.8920     2.2940    -0.0780 ca         1 EYM      -0.042000
     17 H1          -3.6350     3.5360    -0.0870 ha         1 EYM       0.111000
     18 H2           2.4750     1.2440     0.9110 hc         1 EYM       0.029700
     19 H3           2.5250     1.3300    -0.8190 hc         1 EYM       0.029700
     20 H4           2.1860    -1.2670     0.7710 hc         1 EYM       0.075700
     21 H5           2.1950    -1.1650    -0.9560 hc         1 EYM       0.075700
     22 H7          -3.2800    -2.5300    -0.8540 h1         1 EYM       0.048033
     23 H8          -2.0630    -3.4280     0.0560 h1         1 EYM       0.048033
     24 H9          -3.2700    -2.4720     0.9190 h1         1 EYM       0.048033
     25 H10         -4.3610    -0.6740     0.0070 ha         1 EYM       0.110000
     26 H11         -5.1950     1.6070    -0.0280 ha         1 EYM       0.102000
     27 H12         -1.1830     3.1120    -0.1020 ha         1 EYM       0.136000
     28 O2           0.0950    -2.7110    -0.0370 o          1 EYM      -0.531000
@<TRIPOS>BOND
     1     1    15 ar  
     2     1    16 ar  
     3     1    17 1   
     4     2     6 1   
     5     2     9 1   
     6     2    10 1   
     7     3     4 1   
     8     3    11 ar  
     9     3    16 ar  
    10     4     5 2   
    11     5     7 1   
    12     5     8 1   
    13     6     8 1   
    14     6    18 1   
    15     6    19 1   
    16     7    12 1   
    17     7    28 2   
    18     8    20 1   
    19     8    21 1   
    20    11    12 1   
    21    11    14 ar  
    22    12    13 1   
    23    13    22 1   
    24    13    23 1   
    25    13    24 1   
    26    14    15 ar  
    27    14    25 1   
    28    15    26 1   
    29    16    27 1   
@<TRIPOS>SUBSTRUCTURE
     1 EYM         1 TEMP              0 ****  ****    0 ROOT
