@<TRIPOS>MOLECULE
EYM
   28    29     1     0     0
SMALL
No Charge or Current Charge


@<TRIPOS>ATOM
      1 C8          -3.5130     2.5380    -0.3540 ca         1 EYM      -0.151000
      2 C5           4.2760    -0.0260     0.4740 c          1 EYM       0.716000
      3 C6          -1.4790     1.1660    -0.3850 ca         1 EYM       0.084400
      4 N1          -0.0840     1.1670    -0.5570 nc         1 EYM      -0.536100
      5 C2           0.4720    -0.0510    -0.4310 cd         1 EYM       0.417300
      6 C4           2.7620     0.0180     0.7360 c3         1 EYM      -0.204400
      7 C1          -0.2270    -1.3620    -0.1350 c          1 EYM       0.419700
      8 C3           1.9800    -0.1050    -0.6020 c3         1 EYM      -0.094700
      9 O1           4.8500     1.0250     0.2380 o          1 EYM      -0.740000
     10 O            4.8240    -1.1170     0.4530 o          1 EYM      -0.740000
     11 C11         -2.2680     0.0190    -0.1030 ca         1 EYM       0.047600
     12 N           -1.6230    -1.2560     0.0210 n          1 EYM      -0.284000
     13 C           -2.4260    -2.4730     0.3170 c3         1 EYM       0.072300
     14 C10         -3.6700     0.1530     0.0460 ca         1 EYM      -0.162000
     15 C9          -4.2870     1.4060    -0.0780 ca         1 EYM      -0.088000
     16 C7          -2.1230     2.4150    -0.5050 ca         1 EYM      -0.042000
     17 H1          -3.9870     3.5130    -0.4520 ha         1 EYM       0.111000
     18 H2           2.4540    -0.8400     1.3460 hc         1 EYM       0.029700
     19 H3           2.4770     0.9880     1.1630 hc         1 EYM       0.029700
     20 H4           2.2680    -1.0360    -1.1050 hc         1 EYM       0.075700
     21 H5           2.3020     0.6990    -1.2750 hc         1 EYM       0.075700
     22 H7          -3.1630    -2.6300    -0.4800 h1         1 EYM       0.048033
     23 H8          -1.8030    -3.3720     0.3890 h1         1 EYM       0.048033
     24 H9          -2.9500    -2.3430     1.2730 h1         1 EYM       0.048033
     25 H10         -4.3010    -0.7040     0.2600 ha         1 EYM       0.110000
     26 H11         -5.3650     1.4980     0.0390 ha         1 EYM       0.102000
     27 H12         -1.5320     3.3020    -0.7200 ha         1 EYM       0.136000
     28 O2           0.3550    -2.4410    -0.0360 o          1 EYM      -0.531000
@<TRIPOS>BOND
     1     1    15 ar  
     2     1    16 ar  
     3     1    17 1   
     4     2     6 1   
     5     2     9 1   
     6     2    10 1   
     7     3     4 1   
     8     3    11 ar  
     9     3    16 ar  
    10     4     5 2   
    11     5     7 1   
    12     5     8 1   
    13     6     8 1   
    14     6    18 1   
    15     6    19 1   
    16     7    12 1   
    17     7    28 2   
    18     8    20 1   
    19     8    21 1   
    20    11    12 1   
    21    11    14 ar  
    22    12    13 1   
    23    13    22 1   
    24    13    23 1   
    25    13    24 1   
    26    14    15 ar  
    27    14    25 1   
    28    15    26 1   
    29    16    27 1   
@<TRIPOS>SUBSTRUCTURE
     1 EYM         1 TEMP              0 ****  ****    0 ROOT
