@<TRIPOS>MOLECULE
EYN
   59    62     1     0     0
SMALL
abcg2


@<TRIPOS>ATOM
      1 C1           6.1250    -3.5090     1.8850 c3         1 EYN      -0.089600
      2 C2           5.2110    -2.8400     0.8650 c3         1 EYN      -0.059700
      3 C3           3.9410    -3.6610     0.6640 c3         1 EYN      -0.089600
      4 C7           1.9540     0.1750    -0.5370 ca         1 EYN      -0.137000
      5 C8           2.5810     0.7290    -1.6520 ca         1 EYN       0.124100
      6 C9           3.9590     0.6050    -1.8000 ca         1 EYN      -0.176000
      7 C10          4.6700    -0.0770    -0.8390 ca         1 EYN       0.195000
      8 C13          0.5070     1.4910    -2.4890 c6         1 EYN       0.136600
      9 C14          0.0560     1.5440    -1.0350 c6         1 EYN       0.084700
     10 C19         -1.6880    -0.5180     0.0250 ca         1 EYN      -0.144600
     11 C20         -2.1410     0.2420     1.0960 ca         1 EYN      -0.077000
     12 C21         -3.5020     0.3870     1.3200 ca         1 EYN      -0.114000
     13 C22         -4.4080    -0.2300     0.4760 ca         1 EYN       0.097100
     14 C24         -2.5980    -1.1480    -0.8170 ca         1 EYN      -0.092000
     15 N25         -4.9060    -1.6360    -1.3930 ns         1 EYN      -0.142000
     16 C30          0.5260     2.8260    -0.3410 c3         1 EYN      -0.166400
     17 C31          0.0970     2.8790     1.1080 c          1 EYN       0.600100
     18 C34         -1.5880     3.7380     2.6610 c3         1 EYN       0.091300
     19 C4           4.8930    -1.4020     1.3060 c3         1 EYN      -0.018100
     20 C5           4.0920    -0.6310     0.2970 ca         1 EYN      -0.127300
     21 C6           2.7220    -0.4640     0.4290 ca         1 EYN      -0.027000
     22 O12          1.9210     1.4330    -2.5940 os         1 EYN      -0.333100
     23 N16          0.5570     0.3330    -0.3940 n          1 EYN      -0.202400
     24 C17         -0.2290    -0.7660    -0.1760 c          1 EYN       0.620700
     25 O18          0.2190    -1.8950    -0.1080 o          1 EYN      -0.550100
     26 C23         -3.9570    -0.9990    -0.5980 ca         1 EYN      -0.088000
     27 C26         -6.2160    -1.2980    -1.3870 c          1 EYN       0.542000
     28 O27         -7.0460    -1.8120    -2.1070 o          1 EYN      -0.521000
     29 C28         -6.5610    -0.1710    -0.4340 c6         1 EYN       0.072600
     30 O29         -5.7340    -0.1340     0.7150 os         1 EYN      -0.324100
     31 O32          0.7040     2.2810     1.9860 o          1 EYN      -0.585100
     32 N33         -1.0020     3.6100     1.3490 ns         1 EYN      -0.513900
     33 H1           6.4010    -4.5150     1.5670 hc         1 EYN       0.034367
     34 H2           7.0460    -2.9420     2.0340 hc         1 EYN       0.034367
     35 H3           5.6280    -3.5950     2.8540 hc         1 EYN       0.034367
     36 H4           5.7460    -2.7920    -0.0900 hc         1 EYN       0.051700
     37 H5           3.2630    -3.2040    -0.0580 hc         1 EYN       0.034367
     38 H6           4.1790    -4.6650     0.3100 hc         1 EYN       0.034367
     39 H7           3.3970    -3.7630     1.6070 hc         1 EYN       0.034367
     40 H8           4.4590     1.0370    -2.6570 ha         1 EYN       0.145000
     41 H9           0.0610     0.6180    -2.9760 h1         1 EYN       0.064700
     42 H10          0.1920     2.3830    -3.0300 h1         1 EYN       0.064700
     43 H11         -1.0330     1.5230    -1.0330 h1         1 EYN       0.077700
     44 H12         -1.4350     0.7070     1.7710 ha         1 EYN       0.145000
     45 H13         -3.8660     0.9560     2.1660 ha         1 EYN       0.136000
     46 H14         -2.2550    -1.7560    -1.6450 ha         1 EYN       0.132000
     47 H15         -4.5980    -2.3370    -2.0530 hn         1 EYN       0.169000
     48 H16          1.6120     2.9220    -0.3770 hc         1 EYN       0.075700
     49 H17          0.1130     3.6660    -0.9040 hc         1 EYN       0.075700
     50 H18         -2.2340     4.6110     2.6720 h1         1 EYN       0.041700
     51 H19         -2.1870     2.8660     2.9310 h1         1 EYN       0.041700
     52 H20         -0.8170     3.8690     3.4180 h1         1 EYN       0.041700
     53 H21          4.3330    -1.4410     2.2450 hc         1 EYN       0.052200
     54 H22          5.8290    -0.8830     1.5290 hc         1 EYN       0.052200
     55 H23          2.2360    -0.8530     1.3140 ha         1 EYN       0.138000
     56 H24         -6.5020     0.7750    -0.9880 h1         1 EYN       0.085700
     57 H25         -7.5840    -0.2970    -0.0880 h1         1 EYN       0.085700
     58 H26         -1.4560     4.0740     0.5820 hn         1 EYN       0.311500
     59 F11          5.9980    -0.2040    -1.0120 f          1 EYN      -0.177000
@<TRIPOS>BOND
     1     1     2 1   
     2     1    33 1   
     3     1    34 1   
     4     1    35 1   
     5     2     3 1   
     6     2    19 1   
     7     2    36 1   
     8     3    37 1   
     9     3    38 1   
    10     3    39 1   
    11     4     5 ar  
    12     4    21 ar  
    13     4    23 1   
    14     5     6 ar  
    15     5    22 1   
    16     6     7 ar  
    17     6    40 1   
    18     7    20 ar  
    19     7    59 1   
    20     8     9 1   
    21     8    22 1   
    22     8    41 1   
    23     8    42 1   
    24     9    16 1   
    25     9    23 1   
    26     9    43 1   
    27    10    11 ar  
    28    10    14 ar  
    29    10    24 1   
    30    11    12 ar  
    31    11    44 1   
    32    12    13 ar  
    33    12    45 1   
    34    13    26 ar  
    35    13    30 1   
    36    14    26 ar  
    37    14    46 1   
    38    15    26 1   
    39    15    27 1   
    40    15    47 1   
    41    16    17 1   
    42    16    48 1   
    43    16    49 1   
    44    17    31 2   
    45    17    32 1   
    46    18    32 1   
    47    18    50 1   
    48    18    51 1   
    49    18    52 1   
    50    19    20 1   
    51    19    53 1   
    52    19    54 1   
    53    20    21 ar  
    54    21    55 1   
    55    23    24 1   
    56    24    25 2   
    57    27    28 2   
    58    27    29 1   
    59    29    30 1   
    60    29    56 1   
    61    29    57 1   
    62    32    58 1   
@<TRIPOS>SUBSTRUCTURE
     1 EYN         1 TEMP              0 ****  ****    0 ROOT
