@<TRIPOS>MOLECULE
EYN
   59    62     1     0     0
SMALL
No Charge or Current Charge


@<TRIPOS>ATOM
      1 C1           5.9270    -3.8890     1.7950 c3         1 EYN      -0.089600
      2 C2           5.0990    -3.0400     0.8040 c3         1 EYN      -0.059700
      3 C3           3.7940    -3.7680     0.4040 c3         1 EYN      -0.089600
      4 C7           2.0940     0.4100    -0.4130 ca         1 EYN      -0.137000
      5 C8           2.8200     0.9550    -1.4990 ca         1 EYN       0.124100
      6 C9           4.2000     0.7410    -1.6050 ca         1 EYN      -0.176000
      7 C10          4.8560    -0.0720    -0.6720 ca         1 EYN       0.195000
      8 C13          0.7490     1.8110    -2.4670 c6         1 EYN       0.136600
      9 C14          0.1630     1.7870    -1.0300 c6         1 EYN       0.084700
     10 C19         -1.6600    -0.4730    -0.1310 ca         1 EYN      -0.144600
     11 C20         -2.1360     0.4400     0.8380 ca         1 EYN      -0.077000
     12 C21         -3.5130     0.5630     1.0960 ca         1 EYN      -0.114000
     13 C22         -4.4280    -0.2280     0.3900 ca         1 EYN       0.097100
     14 C24         -2.5880    -1.3000    -0.8030 ca         1 EYN      -0.092000
     15 N25         -4.9120    -2.0110    -1.1760 ns         1 EYN      -0.142000
     16 C30          0.5740     3.0920    -0.2670 c3         1 EYN      -0.166400
     17 C31          0.0630     3.1590     1.1690 c          1 EYN       0.600100
     18 C34         -1.7040     4.1510     2.6520 c3         1 EYN       0.091300
     19 C4           4.8340    -1.6180     1.3670 c3         1 EYN      -0.018100
     20 C5           4.1380    -0.6920     0.3710 ca         1 EYN      -0.127300
     21 C6           2.7520    -0.4620     0.4790 ca         1 EYN      -0.027000
     22 O12          2.1970     1.7490    -2.4430 os         1 EYN      -0.333100
     23 N16          0.6540     0.5280    -0.4020 n          1 EYN      -0.202400
     24 C17         -0.1810    -0.6290    -0.4180 c          1 EYN       0.620700
     25 O18          0.2840    -1.7500    -0.5970 o          1 EYN      -0.550100
     26 C23         -3.9640    -1.1710    -0.5510 ca         1 EYN      -0.088000
     27 C26         -6.2730    -1.9220    -0.9810 c          1 EYN       0.542000
     28 O27         -7.0440    -2.8510    -1.1940 o          1 EYN      -0.521000
     29 C28         -6.7010    -0.5640    -0.3890 c6         1 EYN       0.072600
     30 O29         -5.7830    -0.1120     0.6470 os         1 EYN      -0.324100
     31 O32          0.6090     2.5760     2.0930 o          1 EYN      -0.585100
     32 N33         -1.0470     3.9500     1.3580 ns         1 EYN      -0.513900
     33 H1           6.1550    -4.8730     1.3660 hc         1 EYN       0.034367
     34 H2           6.8780    -3.3950     2.0300 hc         1 EYN       0.034367
     35 H3           5.3780    -4.0420     2.7320 hc         1 EYN       0.034367
     36 H4           5.7030    -2.9300    -0.1060 hc         1 EYN       0.051700
     37 H5           3.2610    -3.2200    -0.3820 hc         1 EYN       0.034367
     38 H6           4.0130    -4.7710     0.0180 hc         1 EYN       0.034367
     39 H7           3.1240    -3.8720     1.2660 hc         1 EYN       0.034367
     40 H8           4.7590     1.1940    -2.4190 ha         1 EYN       0.145000
     41 H9           0.3740     0.9410    -3.0250 h1         1 EYN       0.064700
     42 H10          0.4340     2.7170    -3.0050 h1         1 EYN       0.064700
     43 H11         -0.9330     1.7740    -1.1140 h1         1 EYN       0.077700
     44 H12         -1.4380     1.0300     1.4220 ha         1 EYN       0.145000
     45 H13         -3.8680     1.2670     1.8440 ha         1 EYN       0.136000
     46 H14         -2.2390    -2.0360    -1.5260 ha         1 EYN       0.132000
     47 H15         -4.5620    -2.8540    -1.6140 hn         1 EYN       0.169000
     48 H16          1.6660     3.1770    -0.2300 hc         1 EYN       0.075700
     49 H17          0.1710     3.9460    -0.8240 hc         1 EYN       0.075700
     50 H18         -2.5680     4.8160     2.5250 h1         1 EYN       0.041700
     51 H19         -2.0460     3.1860     3.0470 h1         1 EYN       0.041700
     52 H20         -0.9980     4.6060     3.3590 h1         1 EYN       0.041700
     53 H21          4.2400    -1.7030     2.2860 hc         1 EYN       0.052200
     54 H22          5.7880    -1.1720     1.6740 hc         1 EYN       0.052200
     55 H23          2.1850    -0.9520     1.2690 ha         1 EYN       0.138000
     56 H24         -6.7050     0.1630    -1.2110 h1         1 EYN       0.085700
     57 H25         -7.7150    -0.6570     0.0220 h1         1 EYN       0.085700
     58 H26         -1.4310     4.4120     0.5420 hn         1 EYN       0.311500
     59 F11          6.1880    -0.2720    -0.8000 f          1 EYN      -0.177000
@<TRIPOS>BOND
     1     1     2 1   
     2     1    33 1   
     3     1    34 1   
     4     1    35 1   
     5     2     3 1   
     6     2    19 1   
     7     2    36 1   
     8     3    37 1   
     9     3    38 1   
    10     3    39 1   
    11     4     5 ar  
    12     4    21 ar  
    13     4    23 1   
    14     5     6 ar  
    15     5    22 1   
    16     6     7 ar  
    17     6    40 1   
    18     7    20 ar  
    19     7    59 1   
    20     8     9 1   
    21     8    22 1   
    22     8    41 1   
    23     8    42 1   
    24     9    16 1   
    25     9    23 1   
    26     9    43 1   
    27    10    11 ar  
    28    10    14 ar  
    29    10    24 1   
    30    11    12 ar  
    31    11    44 1   
    32    12    13 ar  
    33    12    45 1   
    34    13    26 ar  
    35    13    30 1   
    36    14    26 ar  
    37    14    46 1   
    38    15    26 1   
    39    15    27 1   
    40    15    47 1   
    41    16    17 1   
    42    16    48 1   
    43    16    49 1   
    44    17    31 2   
    45    17    32 1   
    46    18    32 1   
    47    18    50 1   
    48    18    51 1   
    49    18    52 1   
    50    19    20 1   
    51    19    53 1   
    52    19    54 1   
    53    20    21 ar  
    54    21    55 1   
    55    23    24 1   
    56    24    25 2   
    57    27    28 2   
    58    27    29 1   
    59    29    30 1   
    60    29    56 1   
    61    29    57 1   
    62    32    58 1   
@<TRIPOS>SUBSTRUCTURE
     1 EYN         1 TEMP              0 ****  ****    0 ROOT
