@<TRIPOS>MOLECULE
EYO
   35    35     1     0     0
SMALL
bcc


@<TRIPOS>ATOM
      1 C4           7.9490    15.4030   -43.1480 c3         1 EYO       0.135400
      2 C5           8.8590    13.4320   -44.0470 c3         1 EYO       0.135400
      3 C6           9.0020    11.9570   -43.7680 c3         1 EYO       0.135400
      4 C7           9.6280    10.5650   -41.9360 c3         1 EYO       0.135400
      5 C8           8.8290    10.7750   -40.6690 c3         1 EYO       0.135400
      6 C10          6.7310    11.3860   -39.8340 c3         1 EYO       0.135400
      7 C9           5.4120    12.0070   -40.2220 c3         1 EYO       0.135400
      8 O1           5.5990    13.3540   -40.5690 os         1 EYO      -0.395800
      9 O5           7.5240    11.1880   -40.9750 os         1 EYO      -0.395800
     10 O4           9.8330    11.7620   -42.6470 os         1 EYO      -0.395800
     11 O3           8.0640    14.0100   -43.0490 os         1 EYO      -0.395800
     12 C3           6.9600    15.8900   -42.1190 c3         1 EYO       0.135400
     13 O2           5.6550    15.5170   -42.5000 os         1 EYO      -0.395800
     14 C2           4.7230    15.3960   -41.4520 c3         1 EYO       0.135400
     15 C1           4.4460    13.9520   -41.0950 c3         1 EYO       0.135400
     16 H1           8.9140    15.8970   -42.9610 h1         1 EYO       0.031200
     17 H2           7.6280    15.7130   -44.1540 h1         1 EYO       0.031200
     18 H3           9.8520    13.9040   -44.0980 h1         1 EYO       0.031200
     19 H4           8.4030    13.5550   -45.0410 h1         1 EYO       0.031200
     20 H5           8.0080    11.5260   -43.6140 h1         1 EYO       0.031200
     21 H6           9.4290    11.4760   -44.6580 h1         1 EYO       0.031200
     22 H7           9.1500     9.8010   -42.5610 h1         1 EYO       0.031200
     23 H8          10.6050    10.1670   -41.6460 h1         1 EYO       0.031200
     24 H9           8.8270     9.8290   -40.1050 h1         1 EYO       0.031200
     25 H10          9.3330    11.5180   -40.0340 h1         1 EYO       0.031200
     26 H11          6.5280    10.4310   -39.3280 h1         1 EYO       0.031200
     27 H12          7.2400    12.0290   -39.1010 h1         1 EYO       0.031200
     28 H13          4.7230    11.9130   -39.3700 h1         1 EYO       0.031200
     29 H14          4.9680    11.4380   -41.0510 h1         1 EYO       0.031200
     30 H15          7.2290    15.4780   -41.1420 h1         1 EYO       0.031200
     31 H16          7.0460    16.9830   -42.0460 h1         1 EYO       0.031200
     32 H17          5.0460    15.9470   -40.5600 h1         1 EYO       0.031200
     33 H18          3.7790    15.8460   -41.7740 h1         1 EYO       0.031200
     34 H19          3.6160    13.9320   -40.3720 h1         1 EYO       0.031200
     35 H20          4.0980    13.4110   -41.9880 h1         1 EYO       0.031200
@<TRIPOS>BOND
     1     1    11 1   
     2     1    12 1   
     3     1    16 1   
     4     1    17 1   
     5     2     3 1   
     6     2    11 1   
     7     2    18 1   
     8     2    19 1   
     9     3    10 1   
    10     3    20 1   
    11     3    21 1   
    12     4     5 1   
    13     4    10 1   
    14     4    22 1   
    15     4    23 1   
    16     5     9 1   
    17     5    24 1   
    18     5    25 1   
    19     6     7 1   
    20     6     9 1   
    21     6    26 1   
    22     6    27 1   
    23     7     8 1   
    24     7    28 1   
    25     7    29 1   
    26     8    15 1   
    27    12    13 1   
    28    12    30 1   
    29    12    31 1   
    30    13    14 1   
    31    14    15 1   
    32    14    32 1   
    33    14    33 1   
    34    15    34 1   
    35    15    35 1   
@<TRIPOS>SUBSTRUCTURE
     1 EYO         1 TEMP              0 ****  ****    0 ROOT
