@<TRIPOS>MOLECULE
EYO
   35    35     1     0     0
SMALL
No Charge or Current Charge


@<TRIPOS>ATOM
      1 C4           7.9500    15.4500   -43.1290 c3         1 EYO       0.158600
      2 C5           8.8710    13.4040   -44.0850 c3         1 EYO       0.158600
      3 C6           8.9380    11.8900   -43.7750 c3         1 EYO       0.158600
      4 C7           9.7250    10.4560   -41.9570 c3         1 EYO       0.158600
      5 C8           8.9390    10.7640   -40.6520 c3         1 EYO       0.158600
      6 C10          6.7700    11.4330   -39.8020 c3         1 EYO       0.158600
      7 C9           5.4030    11.9930   -40.2660 c3         1 EYO       0.158600
      8 O1           5.5450    13.3940   -40.5790 os         1 EYO      -0.442200
      9 O5           7.5830    11.1480   -40.9590 os         1 EYO      -0.442200
     10 O4           9.9050    11.6690   -42.7220 os         1 EYO      -0.442200
     11 O3           8.0600    14.0180   -43.0680 os         1 EYO      -0.442200
     12 C3           6.9620    15.8890   -42.0230 c3         1 EYO       0.158600
     13 O2           5.6100    15.6600   -42.4850 os         1 EYO      -0.442200
     14 C2           4.6170    15.5040   -41.4460 c3         1 EYO       0.158600
     15 C1           4.3740    13.9940   -41.1690 c3         1 EYO       0.158600
     16 H1           8.9270    15.9150   -42.9460 h1         1 EYO       0.031200
     17 H2           7.5850    15.7840   -44.1100 h1         1 EYO       0.031200
     18 H3           9.8840    13.8280   -44.1010 h1         1 EYO       0.031200
     19 H4           8.4170    13.5510   -45.0740 h1         1 EYO       0.031200
     20 H5           7.9380    11.5390   -43.4900 h1         1 EYO       0.031200
     21 H6           9.2400    11.3460   -44.6790 h1         1 EYO       0.031200
     22 H7           9.2090     9.6810   -42.5400 h1         1 EYO       0.031200
     23 H8          10.7060    10.0560   -41.6720 h1         1 EYO       0.031200
     24 H9           8.9440     9.8650   -40.0220 h1         1 EYO       0.031200
     25 H10          9.4540    11.5630   -40.1030 h1         1 EYO       0.031200
     26 H11          6.6010    10.5140   -39.2260 h1         1 EYO       0.031200
     27 H12          7.2580    12.1630   -39.1430 h1         1 EYO       0.031200
     28 H13          4.6710    11.8610   -39.4590 h1         1 EYO       0.031200
     29 H14          5.0530    11.4250   -41.1380 h1         1 EYO       0.031200
     30 H15          7.1800    15.3270   -41.1060 h1         1 EYO       0.031200
     31 H16          7.1080    16.9550   -41.8060 h1         1 EYO       0.031200
     32 H17          4.9110    16.0190   -40.5220 h1         1 EYO       0.031200
     33 H18          3.6680    15.9410   -41.7800 h1         1 EYO       0.031200
     34 H19          3.5160    13.8980   -40.4900 h1         1 EYO       0.031200
     35 H20          4.1150    13.4930   -42.1110 h1         1 EYO       0.031200
@<TRIPOS>BOND
     1     1    11 1   
     2     1    12 1   
     3     1    16 1   
     4     1    17 1   
     5     2     3 1   
     6     2    11 1   
     7     2    18 1   
     8     2    19 1   
     9     3    10 1   
    10     3    20 1   
    11     3    21 1   
    12     4     5 1   
    13     4    10 1   
    14     4    22 1   
    15     4    23 1   
    16     5     9 1   
    17     5    24 1   
    18     5    25 1   
    19     6     7 1   
    20     6     9 1   
    21     6    26 1   
    22     6    27 1   
    23     7     8 1   
    24     7    28 1   
    25     7    29 1   
    26     8    15 1   
    27    12    13 1   
    28    12    30 1   
    29    12    31 1   
    30    13    14 1   
    31    14    15 1   
    32    14    32 1   
    33    14    33 1   
    34    15    34 1   
    35    15    35 1   
@<TRIPOS>SUBSTRUCTURE
     1 EYO         1 TEMP              0 ****  ****    0 ROOT
