@<TRIPOS>MOLECULE
EYP
   32    34     1     0     0
SMALL
bcc


@<TRIPOS>ATOM
      1 O1          -7.7790     0.3070    -1.3170 o          1 EYP      -0.845050
      2 C1          -5.5880     0.2040    -0.4390 c3         1 EYP      -0.208900
      3 C2          -4.7570     0.5160     0.8060 c3         1 EYP      -0.090200
      4 C3          -3.3120     0.2320     0.5910 cc         1 EYP       0.452700
      5 C4          -1.1650     0.5540     0.2010 ca         1 EYP       0.099400
      6 C5           0.0070     1.2660    -0.0130 ca         1 EYP      -0.039000
      7 C6           1.1780     0.5480    -0.2160 ca         1 EYP       0.099400
      8 C7           3.3260     0.2150    -0.5890 cc         1 EYP       0.452700
      9 C8           4.7760     0.4920    -0.7860 c3         1 EYP      -0.090200
     10 C9           5.5770     0.2130     0.4850 c3         1 EYP      -0.208900
     11 C10          7.0840     0.5150     0.3730 c          1 EYP       0.931600
     12 O2           7.7480     0.3250     1.4110 o          1 EYP      -0.845050
     13 O3           7.5140     0.9150    -0.7260 o          1 EYP      -0.845050
     14 N1           2.4160     1.1080    -0.4370 nd         1 EYP      -0.560100
     15 S            2.7670    -1.4480    -0.4840 ss         1 EYP      -0.172100
     16 C11          1.1610    -0.8660    -0.2040 ca         1 EYP      -0.055600
     17 C12          0.0030    -1.5950     0.0050 ca         1 EYP      -0.062000
     18 C13         -1.1530    -0.8600     0.2070 ca         1 EYP      -0.055600
     19 N           -2.4000     1.1210     0.4210 nd         1 EYP      -0.560100
     20 S1          -2.7590    -1.4330     0.5010 ss         1 EYP      -0.172100
     21 C           -7.0920     0.5090    -0.2960 c          1 EYP       0.931600
     22 O           -7.4970     0.9230     0.8070 o          1 EYP      -0.845050
     23 H2          -5.1940     0.7650    -1.2920 hc         1 EYP       0.028200
     24 H3          -5.4760    -0.8510    -0.7100 hc         1 EYP       0.028200
     25 H4          -4.8530     1.5690     1.0710 hc         1 EYP       0.069450
     26 H5          -5.1240    -0.0650     1.6540 hc         1 EYP       0.069450
     27 H6           0.0090     2.3480    -0.0200 ha         1 EYP       0.158000
     28 H7           5.1590    -0.1120    -1.6100 hc         1 EYP       0.069450
     29 H8           4.8770     1.5380    -1.0770 hc         1 EYP       0.069450
     30 H9           5.1630     0.7960     1.3140 hc         1 EYP       0.028200
     31 H10          5.4580    -0.8340     0.7810 hc         1 EYP       0.028200
     32 H12          0.0020    -2.6770     0.0130 ha         1 EYP       0.139000
@<TRIPOS>BOND
     1     1    21 1   
     2     2     3 1   
     3     2    21 1   
     4     2    23 1   
     5     2    24 1   
     6     3     4 1   
     7     3    25 1   
     8     3    26 1   
     9     4    19 2   
    10     4    20 1   
    11     5     6 ar  
    12     5    18 ar  
    13     5    19 1   
    14     6     7 ar  
    15     6    27 1   
    16     7    14 1   
    17     7    16 ar  
    18     8     9 1   
    19     8    14 2   
    20     8    15 1   
    21     9    10 1   
    22     9    28 1   
    23     9    29 1   
    24    10    11 1   
    25    10    30 1   
    26    10    31 1   
    27    11    12 1   
    28    11    13 1   
    29    15    16 1   
    30    16    17 ar  
    31    17    18 ar  
    32    17    32 1   
    33    18    20 1   
    34    21    22 1   
@<TRIPOS>SUBSTRUCTURE
     1 EYP         1 TEMP              0 ****  ****    0 ROOT
