@<TRIPOS>MOLECULE
EYP
   32    34     1     0     0
SMALL
No Charge or Current Charge


@<TRIPOS>ATOM
      1 O1          -7.4950     1.7930    -0.2770 o          1 EYP      -0.739750
      2 C1          -5.6540     0.3260    -0.5550 c3         1 EYP      -0.208900
      3 C2          -4.8030     0.4040     0.7420 c3         1 EYP      -0.090200
      4 C3          -3.3400     0.1170     0.5250 cc         1 EYP       0.452700
      5 C4          -1.1960     0.4910     0.1910 ca         1 EYP       0.099400
      6 C5           0.0020     1.2050    -0.0060 ca         1 EYP      -0.021000
      7 C6           1.2000     0.4840    -0.1750 ca         1 EYP       0.099400
      8 C7           3.3450     0.0990    -0.4950 cc         1 EYP       0.452700
      9 C8           4.8070     0.3790    -0.7220 c3         1 EYP      -0.090200
     10 C9           5.6580     0.3490     0.5760 c3         1 EYP      -0.208900
     11 C10          7.1320     0.6410     0.2530 c          1 EYP       0.721000
     12 O2           7.4990     1.8060     0.2440 o          1 EYP      -0.739750
     13 O3           7.8530    -0.2990    -0.0400 o          1 EYP      -0.739750
     14 N1           2.4400     1.0820    -0.3760 nd         1 EYP      -0.560100
     15 S            2.7840    -1.5870    -0.3790 ss         1 EYP      -0.045200
     16 C11          1.1870    -0.9010    -0.1470 ca         1 EYP      -0.182500
     17 C12          0.0030    -1.6310     0.0470 ca         1 EYP      -0.044000
     18 C13         -1.1820    -0.8950     0.2150 ca         1 EYP      -0.182500
     19 N           -2.4350     1.0950     0.3690 nd         1 EYP      -0.560100
     20 S1          -2.7790    -1.5720     0.4720 ss         1 EYP      -0.045200
     21 C           -7.1280     0.6290    -0.2430 c          1 EYP       0.721000
     22 O           -7.8480    -0.3000     0.0850 o          1 EYP      -0.739750
     23 H2          -5.2410     1.0850    -1.2310 hc         1 EYP       0.028200
     24 H3          -5.5450    -0.7010    -0.9250 hc         1 EYP       0.028200
     25 H4          -4.9150     1.4000     1.1870 hc         1 EYP       0.069450
     26 H5          -5.2000    -0.3050     1.4780 hc         1 EYP       0.069450
     27 H6           0.0020     2.2900    -0.0260 ha         1 EYP       0.140000
     28 H7           5.2050    -0.3570    -1.4320 hc         1 EYP       0.069450
     29 H8           4.9190     1.3580    -1.2040 hc         1 EYP       0.069450
     30 H9           5.2450     1.1320     1.2240 hc         1 EYP       0.028200
     31 H10          5.5500    -0.6640     0.9840 hc         1 EYP       0.028200
     32 H12          0.0030    -2.7190     0.0680 ha         1 EYP       0.121000
@<TRIPOS>BOND
     1     1    21 1   
     2     2     3 1   
     3     2    21 1   
     4     2    23 1   
     5     2    24 1   
     6     3     4 1   
     7     3    25 1   
     8     3    26 1   
     9     4    19 2   
    10     4    20 1   
    11     5     6 ar  
    12     5    18 ar  
    13     5    19 1   
    14     6     7 ar  
    15     6    27 1   
    16     7    14 1   
    17     7    16 ar  
    18     8     9 1   
    19     8    14 2   
    20     8    15 1   
    21     9    10 1   
    22     9    28 1   
    23     9    29 1   
    24    10    11 1   
    25    10    30 1   
    26    10    31 1   
    27    11    12 1   
    28    11    13 1   
    29    15    16 1   
    30    16    17 ar  
    31    17    18 ar  
    32    17    32 1   
    33    18    20 1   
    34    21    22 1   
@<TRIPOS>SUBSTRUCTURE
     1 EYP         1 TEMP              0 ****  ****    0 ROOT
