@<TRIPOS>MOLECULE
EYQ
   65    69     1     0     0
SMALL
abcg2


@<TRIPOS>ATOM
      1 C1          -3.4170     4.1190     0.8020 c3         1 EYQ      -0.027800
      2 C2          -3.9920     2.7590     0.5680 ca         1 EYQ      -0.223300
      3 C3          -5.3620     2.5820     0.6330 ca         1 EYQ       0.131900
      4 C5          -5.2100     0.4110     0.1470 ca         1 EYQ       0.262900
      5 C7          -3.2540     1.5960     0.2580 ca         1 EYQ       0.270800
      6 C8          -1.8090     1.5380     0.1190 cc         1 EYQ      -0.229000
      7 N10          0.3660     2.0580     0.2160 na         1 EYQ      -0.210700
      8 C12          0.3090     0.8240    -0.3670 ca         1 EYQ      -0.074200
      9 C15         -0.3180    -1.6050    -1.4510 ca         1 EYQ      -0.133000
     10 C16          1.0210    -1.1970    -1.3810 ca         1 EYQ      -0.079000
     11 C17          1.3540     0.0290    -0.8390 ca         1 EYQ      -0.061000
     12 C19          3.6860    -0.1430    -0.1140 c          1 EYQ       0.608100
     13 O20          3.5300    -1.2130     0.4390 o          1 EYQ      -0.556100
     14 C21          5.0030     0.6320    -0.1190 c3         1 EYQ       0.117500
     15 C23          4.9240     1.7880     0.8900 c3         1 EYQ      -0.120100
     16 C30          9.7140    -2.3310     0.7520 c3         1 EYQ       0.152100
     17 C32         -7.0560    -1.2520    -0.0910 c          1 EYQ       0.647100
     18 C34         -7.2140    -2.6970    -0.4030 cx         1 EYQ      -0.252700
     19 C35         -8.3450    -3.4370     0.2650 cx         1 EYQ      -0.095900
     20 C36         -8.4380    -3.1120    -1.1790 cx         1 EYQ      -0.095900
     21 N4          -5.9950     1.4310     0.4340 nb         1 EYQ      -0.174000
     22 N6          -3.8910     0.4430     0.0510 nb         1 EYQ      -0.255000
     23 C9          -0.8810     2.4850     0.5030 cd         1 EYQ      -0.124100
     24 C13         -1.0440     0.4440    -0.4420 ca         1 EYQ      -0.048800
     25 C14         -1.3490    -0.8050    -0.9970 ca         1 EYQ      -0.049000
     26 N18          2.6790     0.5010    -0.7630 ns         1 EYQ      -0.181000
     27 N24          6.1290    -0.2650     0.0420 n3         1 EYQ      -0.720600
     28 C25          7.3330     0.2040    -0.6190 c6         1 EYQ       0.173300
     29 C26          8.3840    -0.8900    -0.6200 c6         1 EYQ       0.162300
     30 N27          8.6910    -1.3110     0.7320 n3         1 EYQ      -0.718600
     31 C28          7.4850    -1.7530     1.4030 c6         1 EYQ       0.162300
     32 C29          6.4380    -0.6560     1.4060 c6         1 EYQ       0.173300
     33 N31         -5.7480    -0.8450    -0.0880 ns         1 EYQ      -0.317900
     34 O33         -8.0000    -0.5240     0.1340 o          1 EYQ      -0.537100
     35 H1          -2.8440     4.1690     1.7300 hc         1 EYQ       0.040700
     36 H2          -2.7590     4.4310    -0.0110 hc         1 EYQ       0.040700
     37 H3          -4.2150     4.8560     0.8780 hc         1 EYQ       0.040700
     38 H4          -5.9950     3.4350     0.8580 h4         1 EYQ       0.023100
     39 H5           1.2040     2.5750     0.4260 hn         1 EYQ       0.351000
     40 H6          -0.5470    -2.5710    -1.8810 ha         1 EYQ       0.115000
     41 H7           1.7990    -1.8410    -1.7670 ha         1 EYQ       0.128000
     42 H8           5.1030     1.0760    -1.1150 h1         1 EYQ       0.057700
     43 H9           4.1460     2.5000     0.6150 hc         1 EYQ       0.043033
     44 H10          4.7100     1.4330     1.8990 hc         1 EYQ       0.043033
     45 H11          5.8660     2.3350     0.9150 hc         1 EYQ       0.043033
     46 H12         10.6200    -1.9640     0.2670 h1         1 EYQ       0.030700
     47 H13          9.9680    -2.5880     1.7820 h1         1 EYQ       0.030700
     48 H14          9.4110    -3.2580     0.2400 h1         1 EYQ       0.030700
     49 H15         -6.3070    -3.2610    -0.5870 hc         1 EYQ       0.086700
     50 H16         -8.1460    -4.4600     0.5560 hc         1 EYQ       0.082700
     51 H17         -8.9620    -2.8780     0.9550 hc         1 EYQ       0.082700
     52 H18         -9.1180    -2.3260    -1.4800 hc         1 EYQ       0.082700
     53 H19         -8.3090    -3.9050    -1.9020 hc         1 EYQ       0.082700
     54 H20         -1.0100     3.4350     0.9900 h4         1 EYQ       0.217000
     55 H21         -2.3720    -1.1420    -1.0660 ha         1 EYQ       0.133000
     56 H22          2.8920     1.3670    -1.2360 hn         1 EYQ       0.146000
     57 H24          7.0980     0.4660    -1.6530 h1         1 EYQ       0.040950
     58 H25          7.7530     1.1050    -0.1410 h1         1 EYQ       0.040950
     59 H26          8.0210    -1.7340    -1.2340 h1         1 EYQ       0.040700
     60 H27          9.2940    -0.5140    -1.0940 h1         1 EYQ       0.040700
     61 H29          7.0620    -2.6550     0.9250 h1         1 EYQ       0.040700
     62 H30          7.7280    -2.0180     2.4350 h1         1 EYQ       0.040700
     63 H31          6.8190     0.1900     2.0000 h1         1 EYQ       0.040950
     64 H32          5.5410    -1.0250     1.9000 h1         1 EYQ       0.040950
     65 H33         -5.0500    -1.5450    -0.2890 hn         1 EYQ       0.166000
@<TRIPOS>BOND
     1     1     2 1   
     2     1    35 1   
     3     1    36 1   
     4     1    37 1   
     5     2     3 ar  
     6     2     5 ar  
     7     3    21 ar  
     8     3    38 1   
     9     4    21 ar  
    10     4    22 ar  
    11     4    33 1   
    12     5     6 1   
    13     5    22 ar  
    14     6    23 2   
    15     6    24 1   
    16     7     8 1   
    17     7    23 1   
    18     7    39 1   
    19     8    11 ar  
    20     8    24 ar  
    21     9    10 ar  
    22     9    25 ar  
    23     9    40 1   
    24    10    11 ar  
    25    10    41 1   
    26    11    26 1   
    27    12    13 2   
    28    12    14 1   
    29    12    26 1   
    30    14    15 1   
    31    14    27 1   
    32    14    42 1   
    33    15    43 1   
    34    15    44 1   
    35    15    45 1   
    36    16    30 1   
    37    16    46 1   
    38    16    47 1   
    39    16    48 1   
    40    17    18 1   
    41    17    33 1   
    42    17    34 2   
    43    18    19 1   
    44    18    20 1   
    45    18    49 1   
    46    19    20 1   
    47    19    50 1   
    48    19    51 1   
    49    20    52 1   
    50    20    53 1   
    51    23    54 1   
    52    24    25 ar  
    53    25    55 1   
    54    26    56 1   
    55    27    28 1   
    56    27    32 1   
    57    28    29 1   
    58    28    57 1   
    59    28    58 1   
    60    29    30 1   
    61    29    59 1   
    62    29    60 1   
    63    30    31 1   
    64    31    32 1   
    65    31    61 1   
    66    31    62 1   
    67    32    63 1   
    68    32    64 1   
    69    33    65 1   
@<TRIPOS>SUBSTRUCTURE
     1 EYQ         1 TEMP              0 ****  ****    0 ROOT
