@<TRIPOS>MOLECULE
EYQ
   65    69     1     0     0
SMALL
No Charge or Current Charge


@<TRIPOS>ATOM
      1 C1          -3.3300     4.0740     0.5320 c3         1 EYQ      -0.027800
      2 C2          -3.8760     2.6500     0.5940 ca         1 EYQ      -0.223300
      3 C3          -5.2380     2.4440     0.8920 ca         1 EYQ       0.131900
      4 C5          -4.9540     0.1960     0.6340 ca         1 EYQ       0.262900
      5 C7          -3.0890     1.4980     0.3220 ca         1 EYQ       0.270800
      6 C8          -1.6610     1.5690    -0.0080 cc         1 EYQ      -0.229000
      7 N10          0.5530     1.9940     0.3270 na         1 EYQ      -0.210700
      8 C12          0.4270     1.0350    -0.6730 ca         1 EYQ      -0.074200
      9 C15         -0.3010    -0.8430    -2.6020 ca         1 EYQ      -0.133000
     10 C16          1.0650    -0.5560    -2.3750 ca         1 EYQ      -0.079000
     11 C17          1.4530     0.4020    -1.4030 ca         1 EYQ      -0.061000
     12 C19          3.9920     0.4720    -1.8180 c          1 EYQ       0.608100
     13 O20          4.0170    -0.0660    -2.9220 o          1 EYQ      -0.556100
     14 C21          5.3090     0.9650    -1.1140 c3         1 EYQ       0.117500
     15 C23          5.0660     2.1840    -0.1740 c3         1 EYQ      -0.120100
     16 C30          8.4920    -2.7700     2.0900 c3         1 EYQ       0.152100
     17 C32         -6.6180    -1.6360     1.1780 c          1 EYQ       0.647100
     18 C34         -6.8190    -3.1040     0.8810 cx         1 EYQ      -0.252700
     19 C35         -8.1800    -3.5770     0.4070 cx         1 EYQ      -0.095900
     20 C36         -7.0190    -3.5390    -0.5590 cx         1 EYQ      -0.095900
     21 N4          -5.7870     1.2160     0.9120 nb         1 EYQ      -0.174000
     22 N6          -3.6480     0.2700     0.3280 nb         1 EYQ      -0.255000
     23 C9          -0.7600     2.2880     0.7700 cd         1 EYQ      -0.124100
     24 C13         -0.8930     0.7440    -0.8960 ca         1 EYQ      -0.048800
     25 C14         -1.3020    -0.1860    -1.8600 ca         1 EYQ      -0.049000
     26 N18          2.8110     0.7250    -1.1230 ns         1 EYQ      -0.181000
     27 N24          6.1220    -0.1260    -0.4680 n3         1 EYQ      -0.720600
     28 C25          7.5260     0.2580    -0.1160 c6         1 EYQ       0.173300
     29 C26          8.3550    -0.9580     0.4070 c6         1 EYQ       0.162300
     30 N27          7.7010    -1.6350     1.5690 n3         1 EYQ      -0.718600
     31 C28          6.3000    -2.0210     1.2150 c6         1 EYQ       0.162300
     32 C29          5.4620    -0.8110     0.6910 c6         1 EYQ       0.173300
     33 N31         -5.4840    -1.1080     0.5970 ns         1 EYQ      -0.317900
     34 O33         -7.3910    -1.0050     1.8850 o          1 EYQ      -0.537100
     35 H1          -2.8510     4.3560     1.4760 hc         1 EYQ       0.040700
     36 H2          -2.5970     4.1920    -0.2740 hc         1 EYQ       0.040700
     37 H3          -4.1320     4.7980     0.3430 hc         1 EYQ       0.040700
     38 H4          -5.9060     3.2770     1.1050 h4         1 EYQ       0.023100
     39 H5           1.4140     2.3810     0.7010 hn         1 EYQ       0.351000
     40 H6          -0.5820    -1.5780    -3.3530 ha         1 EYQ       0.115000
     41 H7           1.8050    -1.0980    -2.9560 ha         1 EYQ       0.128000
     42 H8           5.9050     1.3600    -1.9480 h1         1 EYQ       0.057700
     43 H9           4.5070     2.9660    -0.7010 hc         1 EYQ       0.043033
     44 H10          4.4990     1.9030     0.7220 hc         1 EYQ       0.043033
     45 H11          6.0140     2.6290     0.1490 hc         1 EYQ       0.043033
     46 H12          9.4960    -2.4380     2.3860 h1         1 EYQ       0.030700
     47 H13          8.0070    -3.2090     2.9720 h1         1 EYQ       0.030700
     48 H14          8.6000    -3.5550     1.3290 h1         1 EYQ       0.030700
     49 H15         -6.2630    -3.7790     1.5260 hc         1 EYQ       0.086700
     50 H16         -8.5250    -4.5510     0.7450 hc         1 EYQ       0.082700
     51 H17         -8.9680    -2.8370     0.2790 hc         1 EYQ       0.082700
     52 H18         -7.0350    -2.7750    -1.3340 hc         1 EYQ       0.082700
     53 H19         -6.5870    -4.4880    -0.8690 hc         1 EYQ       0.082700
     54 H20         -0.9430     2.9500     1.6120 h4         1 EYQ       0.217000
     55 H21         -2.3540    -0.3950    -2.0340 ha         1 EYQ       0.133000
     56 H22          2.9450     1.2050    -0.2440 hn         1 EYQ       0.146000
     57 H24          8.0370     0.6810    -0.9930 h1         1 EYQ       0.040950
     58 H25          7.5290     1.0320     0.6640 h1         1 EYQ       0.040950
     59 H26          8.4880    -1.6710    -0.4200 h1         1 EYQ       0.040700
     60 H27          9.3580    -0.6030     0.6890 h1         1 EYQ       0.040700
     61 H29          6.3080    -2.8000     0.4380 h1         1 EYQ       0.040700
     62 H30          5.7900    -2.4470     2.0910 h1         1 EYQ       0.040700
     63 H31          5.3220    -0.1050     1.5230 h1         1 EYQ       0.040950
     64 H32          4.4650    -1.1770     0.4070 h1         1 EYQ       0.040950
     65 H33         -4.9230    -1.7720     0.0800 hn         1 EYQ       0.166000
@<TRIPOS>BOND
     1     1     2 1   
     2     1    35 1   
     3     1    36 1   
     4     1    37 1   
     5     2     3 ar  
     6     2     5 ar  
     7     3    21 ar  
     8     3    38 1   
     9     4    21 ar  
    10     4    22 ar  
    11     4    33 1   
    12     5     6 1   
    13     5    22 ar  
    14     6    23 2   
    15     6    24 1   
    16     7     8 1   
    17     7    23 1   
    18     7    39 1   
    19     8    11 ar  
    20     8    24 ar  
    21     9    10 ar  
    22     9    25 ar  
    23     9    40 1   
    24    10    11 ar  
    25    10    41 1   
    26    11    26 1   
    27    12    13 2   
    28    12    14 1   
    29    12    26 1   
    30    14    15 1   
    31    14    27 1   
    32    14    42 1   
    33    15    43 1   
    34    15    44 1   
    35    15    45 1   
    36    16    30 1   
    37    16    46 1   
    38    16    47 1   
    39    16    48 1   
    40    17    18 1   
    41    17    33 1   
    42    17    34 2   
    43    18    19 1   
    44    18    20 1   
    45    18    49 1   
    46    19    20 1   
    47    19    50 1   
    48    19    51 1   
    49    20    52 1   
    50    20    53 1   
    51    23    54 1   
    52    24    25 ar  
    53    25    55 1   
    54    26    56 1   
    55    27    28 1   
    56    27    32 1   
    57    28    29 1   
    58    28    57 1   
    59    28    58 1   
    60    29    30 1   
    61    29    59 1   
    62    29    60 1   
    63    30    31 1   
    64    31    32 1   
    65    31    61 1   
    66    31    62 1   
    67    32    63 1   
    68    32    64 1   
    69    33    65 1   
@<TRIPOS>SUBSTRUCTURE
     1 EYQ         1 TEMP              0 ****  ****    0 ROOT
