@<TRIPOS>MOLECULE
EYR
  108   107     1     0     0
SMALL
No Charge or Current Charge


@<TRIPOS>ATOM
      1 C48         95.0020   124.4140    83.2100 c3         1 EYR      -0.087100
      2 C49         93.8750   125.3600    83.6790 c3         1 EYR      -0.074400
      3 C50         94.2990   126.4230    84.7340 c3         1 EYR      -0.057700
      4 C51         95.3660   127.4020    84.1800 c3         1 EYR      -0.087100
      5 C52         93.0400   127.1530    85.2920 c3         1 EYR      -0.067400
      6 C53         93.2830   128.1400    86.4620 c3         1 EYR      -0.037200
      7 C54         93.7320   129.5220    86.0060 c2         1 EYR      -0.220200
      8 C55         94.7980   130.2430    86.4090 c2         1 EYR      -0.116400
      9 C56         95.8140   129.8270    87.4680 c3         1 EYR      -0.051900
     10 C57         95.0850   131.6200    85.8230 c3         1 EYR      -0.032200
     11 C58         95.8730   131.5730    84.4940 c3         1 EYR      -0.035200
     12 C59         97.2640   130.9830    84.6340 c2         1 EYR      -0.220200
     13 C60         98.3930   131.6160    85.0050 c2         1 EYR      -0.113400
     14 C61         98.4810   133.0860    85.3990 c3         1 EYR      -0.051900
     15 C62         99.7210   130.8780    85.1190 c3         1 EYR      -0.033200
     16 C63        100.5340   130.8480    83.8040 c3         1 EYR      -0.033200
     17 C64        101.0120   132.2170    83.3520 c2         1 EYR      -0.219200
     18 C65        102.1000   132.8870    83.7760 c2         1 EYR      -0.113400
     19 C66        103.0810   132.3850    84.8290 c3         1 EYR      -0.054900
     20 C67        102.4730   134.2510    83.2110 c3         1 EYR      -0.035200
     21 C68        101.6900   135.4190    83.8530 c3         1 EYR      -0.034200
     22 C69        101.8830   135.5200    85.3550 c2         1 EYR      -0.215200
     23 C70        102.8550   136.1750    86.0190 c2         1 EYR      -0.118400
     24 C71        103.9980   136.9390    85.3630 c3         1 EYR      -0.053900
     25 C72        102.9260   136.1800    87.5390 c3         1 EYR      -0.037200
     26 C73        102.4670   137.5140    88.1670 c3         1 EYR      -0.037200
     27 C74        102.5050   137.4770    89.6840 c2         1 EYR      -0.220200
     28 C75        103.5430   137.7820    90.4850 c2         1 EYR      -0.113400
     29 C76        104.9290   138.1940    90.0010 c3         1 EYR      -0.053900
     30 C77        103.4380   137.7110    92.0030 c3         1 EYR      -0.039200
     31 C78        103.3350   139.0980    92.6720 c3         1 EYR      -0.037200
     32 C79        103.1860   138.9980    94.1800 c2         1 EYR      -0.220200
     33 C80        104.1680   138.9430    95.1000 c2         1 EYR      -0.111400
     34 C81        105.6590   138.9300    94.7870 c3         1 EYR      -0.054900
     35 C82        103.8700   138.8660    96.5930 c3         1 EYR      -0.035200
     36 C83        104.1370   140.1880    97.3460 c3         1 EYR      -0.034200
     37 C84        103.3400   141.3520    96.7820 c2         1 EYR      -0.217200
     38 C85        102.0950   141.7370    97.1190 c2         1 EYR      -0.117400
     39 C86        101.2060   141.0490    98.1450 c3         1 EYR      -0.054900
     40 C87        101.4160   142.9350    96.4810 c3         1 EYR      -0.054900
     41 H1          94.5890   123.6200    82.5770 hc         1 EYR       0.030700
     42 H2          95.7550   124.9500    82.6210 hc         1 EYR       0.030700
     43 H3          95.4980   123.9420    84.0670 hc         1 EYR       0.030700
     44 H4          93.4440   125.8630    82.8050 hc         1 EYR       0.035200
     45 H5          93.0770   124.7390    84.1040 hc         1 EYR       0.035200
     46 H6          94.7590   125.8820    85.5710 hc         1 EYR       0.041700
     47 H7          95.7550   128.0440    84.9760 hc         1 EYR       0.033700
     48 H8          96.2260   126.8680    83.7640 hc         1 EYR       0.033700
     49 H9          94.9440   128.0400    83.3940 hc         1 EYR       0.033700
     50 H10         92.5220   127.6720    84.4770 hc         1 EYR       0.036700
     51 H11         92.3420   126.3880    85.6540 hc         1 EYR       0.036700
     52 H12         92.3370   128.2540    87.0050 hc         1 EYR       0.043200
     53 H13         93.9750   127.6780    87.1730 hc         1 EYR       0.043200
     54 H14         93.0760   129.9440    85.2440 ha         1 EYR       0.165000
     55 H15         95.8490   130.5580    88.2840 hc         1 EYR       0.038367
     56 H16         95.5960   128.8580    87.9240 hc         1 EYR       0.038367
     57 H17         96.8230   129.7590    87.0460 hc         1 EYR       0.038367
     58 H18         94.1350   132.1330    85.6240 hc         1 EYR       0.043700
     59 H19         95.6140   132.2550    86.5440 hc         1 EYR       0.043700
     60 H20         95.2990   130.9930    83.7600 hc         1 EYR       0.043700
     61 H21         95.9290   132.5890    84.0830 hc         1 EYR       0.043700
     62 H22         97.3040   129.9210    84.3870 ha         1 EYR       0.167000
     63 H23         98.9020   133.1990    86.4050 hc         1 EYR       0.038367
     64 H24         99.1190   133.6460    84.7080 hc         1 EYR       0.038367
     65 H25         97.5050   133.5810    85.4070 hc         1 EYR       0.038367
     66 H26         99.5300   129.8370    85.4080 hc         1 EYR       0.042700
     67 H27        100.3360   131.2960    85.9260 hc         1 EYR       0.042700
     68 H28         99.9220   130.3910    83.0170 hc         1 EYR       0.042700
     69 H29        101.3890   130.1750    83.9370 hc         1 EYR       0.042700
     70 H30        100.3710   132.6640    82.5910 ha         1 EYR       0.167000
     71 H31        102.7920   131.4180    85.2540 hc         1 EYR       0.039367
     72 H32        104.0840   132.2640    84.4030 hc         1 EYR       0.039367
     73 H33        103.1620   133.0880    85.6660 hc         1 EYR       0.039367
     74 H34        103.5500   134.4360    83.3080 hc         1 EYR       0.043700
     75 H35        102.2680   134.2660    82.1340 hc         1 EYR       0.043700
     76 H36        101.9870   136.3540    83.3620 hc         1 EYR       0.043200
     77 H37        100.6230   135.2990    83.6270 hc         1 EYR       0.043200
     78 H38        101.1160   134.9860    85.9180 ha         1 EYR       0.168000
     79 H39        104.9690   136.5760    85.7220 hc         1 EYR       0.038367
     80 H40        104.0070   136.8380    84.2730 hc         1 EYR       0.038367
     81 H41        103.9420   138.0110    85.5880 hc         1 EYR       0.038367
     82 H42        102.2930   135.3810    87.9450 hc         1 EYR       0.044700
     83 H43        103.9460   135.9500    87.8740 hc         1 EYR       0.044700
     84 H44        103.0880   138.3330    87.7870 hc         1 EYR       0.046700
     85 H45        101.4460   137.7340    87.8290 hc         1 EYR       0.046700
     86 H46        101.5530   137.1800    90.1280 ha         1 EYR       0.164000
     87 H47        105.7040   137.5520    90.4370 hc         1 EYR       0.038367
     88 H48        105.0370   138.1230    88.9140 hc         1 EYR       0.038367
     89 H49        105.1580   139.2280    90.2820 hc         1 EYR       0.038367
     90 H50        102.5510   137.1320    92.2890 hc         1 EYR       0.045200
     91 H51        104.2940   137.1660    92.4200 hc         1 EYR       0.045200
     92 H52        104.2150   139.6990    92.4140 hc         1 EYR       0.046200
     93 H53        102.4760   139.6350    92.2520 hc         1 EYR       0.046200
     94 H54        102.1440   138.9970    94.5070 ha         1 EYR       0.165000
     95 H55        106.1500   138.0680    95.2540 hc         1 EYR       0.038033
     96 H56        105.8670   138.8670    93.7140 hc         1 EYR       0.038033
     97 H57        106.1510   139.8350    95.1600 hc         1 EYR       0.038033
     98 H58        102.8180   138.5960    96.7500 hc         1 EYR       0.044200
     99 H59        104.4540   138.0620    97.0570 hc         1 EYR       0.044200
    100 H60        103.9100   140.0400    98.4080 hc         1 EYR       0.042700
    101 H61        105.2080   140.4200    97.3090 hc         1 EYR       0.042700
    102 H62        103.8880   141.9130    96.0220 ha         1 EYR       0.169000
    103 H63        100.2560   140.7400    97.6940 hc         1 EYR       0.037533
    104 H64        101.6630   140.1500    98.5710 hc         1 EYR       0.037533
    105 H65        100.9740   141.7240    98.9780 hc         1 EYR       0.037533
    106 H66        102.0620   143.4250    95.7430 hc         1 EYR       0.037533
    107 H67        100.4950   142.6390    95.9650 hc         1 EYR       0.037533
    108 H68        101.1510   143.6870    97.2350 hc         1 EYR       0.037533
@<TRIPOS>BOND
     1     1     2 1   
     2     1    41 1   
     3     1    42 1   
     4     1    43 1   
     5     2     3 1   
     6     2    44 1   
     7     2    45 1   
     8     3     4 1   
     9     3     5 1   
    10     3    46 1   
    11     4    47 1   
    12     4    48 1   
    13     4    49 1   
    14     5     6 1   
    15     5    50 1   
    16     5    51 1   
    17     6     7 1   
    18     6    52 1   
    19     6    53 1   
    20     7     8 2   
    21     7    54 1   
    22     8     9 1   
    23     8    10 1   
    24     9    55 1   
    25     9    56 1   
    26     9    57 1   
    27    10    11 1   
    28    10    58 1   
    29    10    59 1   
    30    11    12 1   
    31    11    60 1   
    32    11    61 1   
    33    12    13 2   
    34    12    62 1   
    35    13    14 1   
    36    13    15 1   
    37    14    63 1   
    38    14    64 1   
    39    14    65 1   
    40    15    16 1   
    41    15    66 1   
    42    15    67 1   
    43    16    17 1   
    44    16    68 1   
    45    16    69 1   
    46    17    18 2   
    47    17    70 1   
    48    18    19 1   
    49    18    20 1   
    50    19    71 1   
    51    19    72 1   
    52    19    73 1   
    53    20    21 1   
    54    20    74 1   
    55    20    75 1   
    56    21    22 1   
    57    21    76 1   
    58    21    77 1   
    59    22    23 2   
    60    22    78 1   
    61    23    24 1   
    62    23    25 1   
    63    24    79 1   
    64    24    80 1   
    65    24    81 1   
    66    25    26 1   
    67    25    82 1   
    68    25    83 1   
    69    26    27 1   
    70    26    84 1   
    71    26    85 1   
    72    27    28 2   
    73    27    86 1   
    74    28    29 1   
    75    28    30 1   
    76    29    87 1   
    77    29    88 1   
    78    29    89 1   
    79    30    31 1   
    80    30    90 1   
    81    30    91 1   
    82    31    32 1   
    83    31    92 1   
    84    31    93 1   
    85    32    33 2   
    86    32    94 1   
    87    33    34 1   
    88    33    35 1   
    89    34    95 1   
    90    34    96 1   
    91    34    97 1   
    92    35    36 1   
    93    35    98 1   
    94    35    99 1   
    95    36    37 1   
    96    36   100 1   
    97    36   101 1   
    98    37    38 2   
    99    37   102 1   
   100    38    39 1   
   101    38    40 1   
   102    39   103 1   
   103    39   104 1   
   104    39   105 1   
   105    40   106 1   
   106    40   107 1   
   107    40   108 1   
@<TRIPOS>SUBSTRUCTURE
     1 EYR         1 TEMP              0 ****  ****    0 ROOT
