@<TRIPOS>MOLECULE
EYR
  108   107     1     0     0
SMALL
abcg2


@<TRIPOS>ATOM
      1 C48         93.8730   125.7180    83.5460 c3         1 EYR      -0.087100
      2 C49         93.0610   126.6340    84.4520 c3         1 EYR      -0.074400
      3 C50         93.8970   127.5010    85.4010 c3         1 EYR      -0.057700
      4 C51         94.8170   128.4430    84.6310 c3         1 EYR      -0.087100
      5 C52         92.9670   128.2400    86.3680 c3         1 EYR      -0.067400
      6 C53         93.6480   129.0140    87.5050 c3         1 EYR      -0.037200
      7 C54         94.1280   130.3810    87.1260 c2         1 EYR      -0.220200
      8 C55         95.3110   130.9260    87.4110 c2         1 EYR      -0.116400
      9 C56         96.3760   130.1880    88.1850 c3         1 EYR      -0.051900
     10 C57         95.6460   132.3060    86.9020 c3         1 EYR      -0.032200
     11 C58         96.3370   132.2900    85.5270 c3         1 EYR      -0.035200
     12 C59         97.6030   131.4930    85.4970 c2         1 EYR      -0.220200
     13 C60         98.8530   131.9530    85.3920 c2         1 EYR      -0.113400
     14 C61         99.1860   133.4160    85.2800 c3         1 EYR      -0.051900
     15 C62        100.0060   130.9820    85.3750 c3         1 EYR      -0.033200
     16 C63        100.6080   130.7130    83.9840 c3         1 EYR      -0.033200
     17 C64        101.2610   131.9020    83.3420 c2         1 EYR      -0.219200
     18 C65        102.5140   132.3230    83.5340 c2         1 EYR      -0.113400
     19 C66        103.5030   131.6310    84.4230 c3         1 EYR      -0.054900
     20 C67        103.0070   133.5790    82.8560 c3         1 EYR      -0.035200
     21 C68        102.5190   134.8730    83.5280 c3         1 EYR      -0.034200
     22 C69        102.9090   134.9970    84.9680 c2         1 EYR      -0.215200
     23 C70        103.8450   135.7900    85.4970 c2         1 EYR      -0.118400
     24 C71        104.7220   136.7130    84.7010 c3         1 EYR      -0.053900
     25 C72        104.0610   135.8240    86.9870 c3         1 EYR      -0.037200
     26 C73        103.5290   137.1140    87.6300 c3         1 EYR      -0.037200
     27 C74        103.7000   137.1140    89.1170 c2         1 EYR      -0.220200
     28 C75        104.3570   137.9940    89.8770 c2         1 EYR      -0.113400
     29 C76        105.0920   139.1950    89.3560 c3         1 EYR      -0.053900
     30 C77        104.3750   137.8410    91.3760 c3         1 EYR      -0.039200
     31 C78        103.4150   138.8140    92.0800 c3         1 EYR      -0.037200
     32 C79        103.4590   138.6660    93.5690 c2         1 EYR      -0.220200
     33 C80        103.7580   139.5950    94.4800 c2         1 EYR      -0.111400
     34 C81        104.0950   141.0220    94.1550 c3         1 EYR      -0.054900
     35 C82        103.7600   139.2610    95.9480 c3         1 EYR      -0.035200
     36 C83        102.7470   140.0730    96.7720 c3         1 EYR      -0.034200
     37 C84        101.3370   139.8710    96.3140 c2         1 EYR      -0.217200
     38 C85        100.3770   139.1640    96.9160 c2         1 EYR      -0.117400
     39 C86        100.5440   138.4250    98.2110 c3         1 EYR      -0.054900
     40 C87         99.0060   139.0530    96.3140 c3         1 EYR      -0.054900
     41 H1          93.2200   125.0780    82.9520 hc         1 EYR       0.030700
     42 H2          94.4990   126.2750    82.8480 hc         1 EYR       0.030700
     43 H3          94.5280   125.0680    84.1290 hc         1 EYR       0.030700
     44 H4          92.4270   127.2870    83.8410 hc         1 EYR       0.035200
     45 H5          92.3780   126.0210    85.0480 hc         1 EYR       0.035200
     46 H6          94.5250   126.8250    85.9980 hc         1 EYR       0.041700
     47 H7          95.4390   129.0380    85.2980 hc         1 EYR       0.033700
     48 H8          95.4870   127.8970    83.9650 hc         1 EYR       0.033700
     49 H9          94.2380   129.1410    84.0210 hc         1 EYR       0.033700
     50 H10         92.3210   128.9210    85.8010 hc         1 EYR       0.036700
     51 H11         92.2970   127.5010    86.8190 hc         1 EYR       0.036700
     52 H12         92.9160   129.1230    88.3140 hc         1 EYR       0.043200
     53 H13         94.4610   128.4120    87.9230 hc         1 EYR       0.043200
     54 H14         93.4170   130.9770    86.5560 ha         1 EYR       0.165000
     55 H15         97.2830   130.7830    88.2810 hc         1 EYR       0.038367
     56 H16         96.0430   129.9360    89.1930 hc         1 EYR       0.038367
     57 H17         96.6570   129.2500    87.6990 hc         1 EYR       0.038367
     58 H18         94.7320   132.8990    86.8130 hc         1 EYR       0.043700
     59 H19         96.2900   132.8260    87.6170 hc         1 EYR       0.043700
     60 H20         95.6320   131.8600    84.8080 hc         1 EYR       0.043700
     61 H21         96.5090   133.3200    85.2090 hc         1 EYR       0.043700
     62 H22         97.4730   130.4160    85.5800 ha         1 EYR       0.167000
     63 H23        100.1470   133.6320    85.7490 hc         1 EYR       0.038367
     64 H24         99.2760   133.7320    84.2380 hc         1 EYR       0.038367
     65 H25         98.4370   134.0530    85.7470 hc         1 EYR       0.038367
     66 H26         99.6720   130.0260    85.7850 hc         1 EYR       0.042700
     67 H27        100.8040   131.3450    86.0310 hc         1 EYR       0.042700
     68 H28         99.8140   130.3380    83.3330 hc         1 EYR       0.042700
     69 H29        101.3260   129.8950    84.0850 hc         1 EYR       0.042700
     70 H30        100.6320   132.4920    82.6790 ha         1 EYR       0.167000
     71 H31        103.0810   130.7910    84.9710 hc         1 EYR       0.039367
     72 H32        104.3500   131.2590    83.8390 hc         1 EYR       0.039367
     73 H33        103.9210   132.3300    85.1530 hc         1 EYR       0.039367
     74 H34        104.1000   133.5850    82.8360 hc         1 EYR       0.043700
     75 H35        102.6780   133.5960    81.8140 hc         1 EYR       0.043700
     76 H36        102.8840   135.7220    82.9470 hc         1 EYR       0.043200
     77 H37        101.4270   134.9020    83.4590 hc         1 EYR       0.043200
     78 H38        102.3490   134.3660    85.6560 ha         1 EYR       0.168000
     79 H39        105.7740   136.5280    84.9310 hc         1 EYR       0.038367
     80 H40        104.5950   136.6080    83.6260 hc         1 EYR       0.038367
     81 H41        104.5310   137.7590    84.9520 hc         1 EYR       0.038367
     82 H42        103.5680   134.9680    87.4550 hc         1 EYR       0.044700
     83 H43        105.1290   135.7320    87.2120 hc         1 EYR       0.044700
     84 H44        104.0090   137.9820    87.1750 hc         1 EYR       0.046700
     85 H45        102.4630   137.1940    87.3920 hc         1 EYR       0.046700
     86 H46        103.2190   136.2800    89.6250 ha         1 EYR       0.164000
     87 H47        106.1500   139.1380    89.6260 hc         1 EYR       0.038367
     88 H48        105.0330   139.3080    88.2760 hc         1 EYR       0.038367
     89 H49        104.7100   140.1160    89.8020 hc         1 EYR       0.038367
     90 H50        104.1070   136.8190    91.6550 hc         1 EYR       0.045200
     91 H51        105.3890   138.0150    91.7530 hc         1 EYR       0.045200
     92 H52        103.6350   139.8390    91.7760 hc         1 EYR       0.046200
     93 H53        102.4000   138.6020    91.7270 hc         1 EYR       0.046200
     94 H54        103.2190   137.6690    93.9330 ha         1 EYR       0.165000
     95 H55        104.9220   141.3750    94.7740 hc         1 EYR       0.038033
     96 H56        104.3740   141.1710    93.1140 hc         1 EYR       0.038033
     97 H57        103.2490   141.6860    94.3580 hc         1 EYR       0.038033
     98 H58        103.5580   138.1970    96.0920 hc         1 EYR       0.044200
     99 H59        104.7590   139.4540    96.3550 hc         1 EYR       0.044200
    100 H60        102.8660   139.8050    97.8230 hc         1 EYR       0.042700
    101 H61        102.9990   141.1360    96.7070 hc         1 EYR       0.042700
    102 H62        101.0850   140.3430    95.3670 ha         1 EYR       0.169000
    103 H63        100.2890   137.3700    98.0820 hc         1 EYR       0.037533
    104 H64        101.5550   138.4730    98.6120 hc         1 EYR       0.037533
    105 H65         99.8620   138.8150    98.9710 hc         1 EYR       0.037533
    106 H66         98.9230   139.6050    95.3780 hc         1 EYR       0.037533
    107 H67         98.7490   138.0090    96.1150 hc         1 EYR       0.037533
    108 H68         98.2440   139.4330    97.0000 hc         1 EYR       0.037533
@<TRIPOS>BOND
     1     1     2 1   
     2     1    41 1   
     3     1    42 1   
     4     1    43 1   
     5     2     3 1   
     6     2    44 1   
     7     2    45 1   
     8     3     4 1   
     9     3     5 1   
    10     3    46 1   
    11     4    47 1   
    12     4    48 1   
    13     4    49 1   
    14     5     6 1   
    15     5    50 1   
    16     5    51 1   
    17     6     7 1   
    18     6    52 1   
    19     6    53 1   
    20     7     8 2   
    21     7    54 1   
    22     8     9 1   
    23     8    10 1   
    24     9    55 1   
    25     9    56 1   
    26     9    57 1   
    27    10    11 1   
    28    10    58 1   
    29    10    59 1   
    30    11    12 1   
    31    11    60 1   
    32    11    61 1   
    33    12    13 2   
    34    12    62 1   
    35    13    14 1   
    36    13    15 1   
    37    14    63 1   
    38    14    64 1   
    39    14    65 1   
    40    15    16 1   
    41    15    66 1   
    42    15    67 1   
    43    16    17 1   
    44    16    68 1   
    45    16    69 1   
    46    17    18 2   
    47    17    70 1   
    48    18    19 1   
    49    18    20 1   
    50    19    71 1   
    51    19    72 1   
    52    19    73 1   
    53    20    21 1   
    54    20    74 1   
    55    20    75 1   
    56    21    22 1   
    57    21    76 1   
    58    21    77 1   
    59    22    23 2   
    60    22    78 1   
    61    23    24 1   
    62    23    25 1   
    63    24    79 1   
    64    24    80 1   
    65    24    81 1   
    66    25    26 1   
    67    25    82 1   
    68    25    83 1   
    69    26    27 1   
    70    26    84 1   
    71    26    85 1   
    72    27    28 2   
    73    27    86 1   
    74    28    29 1   
    75    28    30 1   
    76    29    87 1   
    77    29    88 1   
    78    29    89 1   
    79    30    31 1   
    80    30    90 1   
    81    30    91 1   
    82    31    32 1   
    83    31    92 1   
    84    31    93 1   
    85    32    33 2   
    86    32    94 1   
    87    33    34 1   
    88    33    35 1   
    89    34    95 1   
    90    34    96 1   
    91    34    97 1   
    92    35    36 1   
    93    35    98 1   
    94    35    99 1   
    95    36    37 1   
    96    36   100 1   
    97    36   101 1   
    98    37    38 2   
    99    37   102 1   
   100    38    39 1   
   101    38    40 1   
   102    39   103 1   
   103    39   104 1   
   104    39   105 1   
   105    40   106 1   
   106    40   107 1   
   107    40   108 1   
@<TRIPOS>SUBSTRUCTURE
     1 EYR         1 TEMP              0 ****  ****    0 ROOT
