@<TRIPOS>MOLECULE
EYV
   19    20     1     0     0
SMALL
abcg2


@<TRIPOS>ATOM
      1 C1           2.2620     0.0450    -0.9510 c3         1 EYV      -0.274700
      2 C2           0.8130     0.0300    -0.6430 cc         1 EYV       0.516200
      3 C3          -1.2500     0.7330    -0.3230 ca         1 EYV       0.123400
      4 C4          -2.3240     1.6220    -0.2720 ca         1 EYV      -0.074000
      5 C5          -3.5670     1.1520     0.1110 ca         1 EYV      -0.127000
      6 C6          -3.7540    -0.1930     0.4450 ca         1 EYV      -0.136000
      7 C7          -2.7010    -1.0910     0.4020 ca         1 EYV      -0.071000
      8 C8          -1.4530    -0.6150     0.0170 ca         1 EYV      -0.200000
      9 O1           4.3800     0.1320     0.1000 o          1 EYV      -0.712500
     10 C            3.1570     0.1210     0.3210 c          1 EYV       0.733000
     11 O            2.5760     0.1670     1.4170 o          1 EYV      -0.712500
     12 S            0.0460    -1.4620    -0.1430 ss         1 EYV      -0.003200
     13 N            0.0350     1.0540    -0.6930 nd         1 EYV      -0.584100
     14 H1           2.5410    -0.8400    -1.5280 hc         1 EYV       0.052200
     15 H2           2.4710     0.9090    -1.5850 hc         1 EYV       0.052200
     16 H3          -2.1760     2.6630    -0.5300 ha         1 EYV       0.119000
     17 H4          -4.4060     1.8330     0.1520 ha         1 EYV       0.096000
     18 H5          -4.7350    -0.5400     0.7410 ha         1 EYV       0.094000
     19 H6          -2.8500    -2.1310     0.6590 ha         1 EYV       0.108000
@<TRIPOS>BOND
     1     1     2 1   
     2     1    10 1   
     3     1    14 1   
     4     1    15 1   
     5     2    12 1   
     6     2    13 2   
     7     3     4 ar  
     8     3     8 ar  
     9     3    13 1   
    10     4     5 ar  
    11     4    16 1   
    12     5     6 ar  
    13     5    17 1   
    14     6     7 ar  
    15     6    18 1   
    16     7     8 ar  
    17     7    19 1   
    18     8    12 1   
    19     9    10 1   
    20    10    11 1   
@<TRIPOS>SUBSTRUCTURE
     1 EYV         1 TEMP              0 ****  ****    0 ROOT
