@<TRIPOS>MOLECULE
EYV
   19    20     1     0     0
SMALL
No Charge or Current Charge


@<TRIPOS>ATOM
      1 C1           2.2940     0.2560    -0.9630 c3         1 EYV      -0.274700
      2 C2           0.8490     0.1420    -0.6090 cc         1 EYV       0.516200
      3 C3          -1.2420     0.7560    -0.2960 ca         1 EYV       0.123400
      4 C4          -2.3660     1.5940    -0.2090 ca         1 EYV      -0.074000
      5 C5          -3.6160     1.0410     0.1400 ca         1 EYV      -0.127000
      6 C6          -3.7320    -0.3400     0.3980 ca         1 EYV      -0.136000
      7 C7          -2.6000    -1.1730     0.3070 ca         1 EYV      -0.071000
      8 C8          -1.3700    -0.5950    -0.0420 ca         1 EYV      -0.200000
      9 O1           3.4210    -1.0470     0.6280 o          1 EYV      -0.712500
     10 C            3.1100     0.0860     0.2970 c          1 EYV       0.733000
     11 O            3.3210     1.0750     0.9790 o          1 EYV      -0.712500
     12 S            0.1520    -1.4500    -0.2140 ss         1 EYV      -0.003200
     13 N            0.0290     1.2050    -0.6340 nd         1 EYV      -0.584100
     14 H1           2.5060    -0.5530    -1.6710 hc         1 EYV       0.052200
     15 H2           2.4480     1.2560    -1.3850 hc         1 EYV       0.052200
     16 H3          -2.2720     2.6580    -0.4090 ha         1 EYV       0.119000
     17 H4          -4.4910     1.6830     0.2110 ha         1 EYV       0.096000
     18 H5          -4.6970    -0.7640     0.6670 ha         1 EYV       0.094000
     19 H6          -2.6800    -2.2400     0.5020 ha         1 EYV       0.108000
@<TRIPOS>BOND
     1     1     2 1   
     2     1    10 1   
     3     1    14 1   
     4     1    15 1   
     5     2    12 1   
     6     2    13 2   
     7     3     4 ar  
     8     3     8 ar  
     9     3    13 1   
    10     4     5 ar  
    11     4    16 1   
    12     5     6 ar  
    13     5    17 1   
    14     6     7 ar  
    15     6    18 1   
    16     7     8 ar  
    17     7    19 1   
    18     8    12 1   
    19     9    10 1   
    20    10    11 1   
@<TRIPOS>SUBSTRUCTURE
     1 EYV         1 TEMP              0 ****  ****    0 ROOT
