@<TRIPOS>MOLECULE
EYW
   45    47     1     0     0
SMALL
bcc


@<TRIPOS>ATOM
      1 C1           5.7100     0.7210    -0.4290 c5         1 EYW       0.080700
      2 C2          -2.8820    -0.5820     0.7530 c5         1 EYW       0.023400
      3 C3          -5.4150     1.2880    -0.7210 c          1 EYW       0.824500
      4 C4          -4.2050     0.1720     0.9470 c5         1 EYW       0.099700
      5 C5          -5.3740    -0.7360     0.4600 c5         1 EYW       0.102700
      6 C6          -4.7860    -2.0070    -0.1630 c5         1 EYW      -0.018300
      7 C7          -1.6550     0.3080     0.6790 c3         1 EYW      -0.059400
      8 C9           0.8690     0.4540     0.5690 c3         1 EYW      -0.065400
      9 C11          3.4010     0.5510     0.4160 c          1 EYW       0.664100
     10 C12          6.5820    -0.0350    -1.4330 c5         1 EYW      -0.128400
     11 C15          6.5550     0.5980     0.8460 c5         1 EYW       0.122800
     12 O3          -5.7640     2.1580    -1.5060 o          1 EYW      -0.653500
     13 N1          -6.0480     0.1110    -0.4890 ns         1 EYW      -0.589900
     14 N2          -4.3270     1.3260     0.0940 ns         1 EYW      -0.582900
     15 S1          -3.1350    -1.5640    -0.7620 ss         1 EYW      -0.314200
     16 C8          -0.3460    -0.4660     0.5900 c3         1 EYW      -0.079400
     17 C10          2.1690    -0.3300     0.4660 c3         1 EYW      -0.156400
     18 O11          3.4610     1.6300     0.9920 o          1 EYW      -0.604100
     19 N12          4.4290     0.0500    -0.2880 ns         1 EYW      -0.581900
     20 C13          7.3720    -1.0540    -0.5710 c5         1 EYW       0.135800
     21 N14          7.0750    -0.7610     0.8350 n7         1 EYW      -0.775200
     22 H1           5.5480     1.7600    -0.7220 h1         1 EYW       0.082700
     23 H2          -2.7710    -1.2810     1.5890 h1         1 EYW       0.069700
     24 H4          -6.0410    -1.0110     1.2800 h1         1 EYW       0.070700
     25 H5          -4.7040    -2.7910     0.5920 h1         1 EYW       0.077700
     26 H6          -5.3970    -2.3870    -0.9810 h1         1 EYW       0.077700
     27 H7          -1.7430     0.9840    -0.1760 hc         1 EYW       0.054700
     28 H8          -1.6400     0.9390     1.5750 hc         1 EYW       0.054700
     29 H9           0.7840     1.1430    -0.2770 hc         1 EYW       0.056200
     30 H10          0.8770     1.0700     1.4710 hc         1 EYW       0.056200
     31 H11          5.9960    -0.5080    -2.2240 hc         1 EYW       0.056200
     32 H12          7.2580     0.6670    -1.9200 hc         1 EYW       0.056200
     33 H13          7.3820     1.3130     0.7900 h1         1 EYW       0.070700
     34 H14          6.0000     0.8030     1.7600 h1         1 EYW       0.070700
     35 H15         -6.7810    -0.2240    -1.0910 hn         1 EYW       0.342500
     36 H16         -3.8690     2.1980     0.3000 hn         1 EYW       0.340500
     37 H17         -0.2690    -1.1550     1.4370 hc         1 EYW       0.044200
     38 H18         -0.3430    -1.0880    -0.3110 hc         1 EYW       0.044200
     39 H19          2.2710    -0.9870     1.3370 hc         1 EYW       0.054700
     40 H20          2.1410    -0.9900    -0.4050 hc         1 EYW       0.054700
     41 H21          4.2920    -0.8220    -0.7740 hn         1 EYW       0.311500
     42 H22          7.1070    -2.0870    -0.8000 h1         1 EYW       0.050200
     43 H23          8.4420    -0.9500    -0.7600 h1         1 EYW       0.050200
     44 H24          6.3370    -1.3800     1.1460 hn         1 EYW       0.343800
     45 H3          -4.3140     0.4440     2.0010 h1         1 EYW       0.063700
@<TRIPOS>BOND
     1     1    10 1   
     2     1    11 1   
     3     1    19 1   
     4     1    22 1   
     5     2     4 1   
     6     2     7 1   
     7     2    15 1   
     8     2    23 1   
     9     3    12 2   
    10     3    13 1   
    11     3    14 1   
    12     4     5 1   
    13     4    14 1   
    14     4    45 1   
    15     5     6 1   
    16     5    13 1   
    17     5    24 1   
    18     6    15 1   
    19     6    25 1   
    20     6    26 1   
    21     7    16 1   
    22     7    27 1   
    23     7    28 1   
    24     8    16 1   
    25     8    17 1   
    26     8    29 1   
    27     8    30 1   
    28     9    17 1   
    29     9    18 2   
    30     9    19 1   
    31    10    20 1   
    32    10    31 1   
    33    10    32 1   
    34    11    21 1   
    35    11    33 1   
    36    11    34 1   
    37    13    35 1   
    38    14    36 1   
    39    16    37 1   
    40    16    38 1   
    41    17    39 1   
    42    17    40 1   
    43    19    41 1   
    44    20    21 1   
    45    20    42 1   
    46    20    43 1   
    47    21    44 1   
@<TRIPOS>SUBSTRUCTURE
     1 EYW         1 TEMP              0 ****  ****    0 ROOT
