@<TRIPOS>MOLECULE
EYW
   45    47     1     0     0
SMALL
No Charge or Current Charge


@<TRIPOS>ATOM
      1 C1           5.5450     0.6010    -0.1540 c5         1 EYW       0.080700
      2 C2          -2.9550    -0.3630     0.8880 c5         1 EYW       0.071300
      3 C3          -5.0260     0.9200    -1.4610 c          1 EYW       0.615000
      4 C4          -4.2520     0.5120     0.7230 c5         1 EYW       0.099700
      5 C5          -5.4580    -0.4610     0.3920 c5         1 EYW       0.102700
      6 C6          -4.8960    -1.9120     0.2180 c5         1 EYW       0.029600
      7 C7          -1.6010     0.3770     0.7200 c3         1 EYW      -0.059400
      8 C9           0.9670     0.3040     0.9490 c3         1 EYW      -0.065400
      9 C11          3.5030     0.2520     1.1620 c          1 EYW       0.597100
     10 C12          5.9590     0.2170    -1.6100 c5         1 EYW      -0.128400
     11 C15          6.6190    -0.1100     0.7410 c5         1 EYW       0.122800
     12 O3          -5.1150     1.4040    -2.5720 o          1 EYW      -0.578000
     13 N1          -5.8350    -0.0410    -0.9600 ns         1 EYW      -0.522900
     14 N2          -4.1160     1.2730    -0.5250 ns         1 EYW      -0.515900
     15 S1          -3.1370    -1.7410    -0.3350 ss         1 EYW      -0.410000
     16 C8          -0.3620    -0.4720     1.0890 c3         1 EYW      -0.079400
     17 C10          2.2050    -0.5470     1.3180 c3         1 EYW      -0.156400
     18 O11          3.8400     1.1140     1.9620 o          1 EYW      -0.604100
     19 N12          4.2720    -0.1040     0.0710 ns         1 EYW      -0.514900
     20 C13          7.4480    -0.1490    -1.4240 c5         1 EYW       0.135800
     21 N14          7.4080    -0.9590    -0.1900 n7         1 EYW      -0.830400
     22 H1           5.5000     1.6870     0.0160 h1         1 EYW       0.082700
     23 H2          -2.9640    -0.8090     1.8920 h1         1 EYW       0.069700
     24 H4          -6.2870    -0.3990     1.1110 h1         1 EYW       0.070700
     25 H5          -4.9070    -2.4410     1.1800 h1         1 EYW       0.077700
     26 H6          -5.4770    -2.5110    -0.4960 h1         1 EYW       0.077700
     27 H7          -1.4890     0.7260    -0.3140 hc         1 EYW       0.054700
     28 H8          -1.6060     1.2740     1.3520 hc         1 EYW       0.054700
     29 H9           1.0700     0.6600    -0.0840 hc         1 EYW       0.056200
     30 H10          0.9350     1.1940     1.5910 hc         1 EYW       0.056200
     31 H11          5.4040    -0.6410    -2.0100 hc         1 EYW       0.056200
     32 H12          5.8210     1.0460    -2.3130 hc         1 EYW       0.056200
     33 H13          7.2690     0.6480     1.2010 h1         1 EYW       0.070700
     34 H14          6.1810    -0.6960     1.5630 h1         1 EYW       0.070700
     35 H15         -6.5760    -0.4200    -1.5370 hn         1 EYW       0.342500
     36 H16         -3.4350     1.9900    -0.7360 hn         1 EYW       0.340500
     37 H17         -0.4640    -0.8280     2.1220 hc         1 EYW       0.044200
     38 H18         -0.3240    -1.3610     0.4470 hc         1 EYW       0.044200
     39 H19          2.1100    -0.8620     2.3640 hc         1 EYW       0.054700
     40 H20          2.2260    -1.4290     0.6670 hc         1 EYW       0.054700
     41 H21          3.9140    -0.8350    -0.5320 hn         1 EYW       0.311500
     42 H22          7.8470    -0.7160    -2.2770 h1         1 EYW       0.050200
     43 H23          8.0700     0.7480    -1.2880 h1         1 EYW       0.050200
     44 H24          6.8630    -1.8070    -0.3910 hn         1 EYW       0.399000
     45 H3          -4.4460     1.1580     1.5910 h1         1 EYW       0.063700
@<TRIPOS>BOND
     1     1    10 1   
     2     1    11 1   
     3     1    19 1   
     4     1    22 1   
     5     2     4 1   
     6     2     7 1   
     7     2    15 1   
     8     2    23 1   
     9     3    12 2   
    10     3    13 1   
    11     3    14 1   
    12     4     5 1   
    13     4    14 1   
    14     4    45 1   
    15     5     6 1   
    16     5    13 1   
    17     5    24 1   
    18     6    15 1   
    19     6    25 1   
    20     6    26 1   
    21     7    16 1   
    22     7    27 1   
    23     7    28 1   
    24     8    16 1   
    25     8    17 1   
    26     8    29 1   
    27     8    30 1   
    28     9    17 1   
    29     9    18 2   
    30     9    19 1   
    31    10    20 1   
    32    10    31 1   
    33    10    32 1   
    34    11    21 1   
    35    11    33 1   
    36    11    34 1   
    37    13    35 1   
    38    14    36 1   
    39    16    37 1   
    40    16    38 1   
    41    17    39 1   
    42    17    40 1   
    43    19    41 1   
    44    20    21 1   
    45    20    42 1   
    46    20    43 1   
    47    21    44 1   
@<TRIPOS>SUBSTRUCTURE
     1 EYW         1 TEMP              0 ****  ****    0 ROOT
