@<TRIPOS>MOLECULE
EYY
   25    26     1     0     0
SMALL
bcc


@<TRIPOS>ATOM
      1 C1          -2.6160    -0.0580     0.5360 c3         1 EYY      -0.205400
      2 O1          -4.8140     0.3040     1.3300 o          1 EYY      -0.842300
      3 C2          -1.7940    -0.3570    -0.7150 c3         1 EYY      -0.121700
      4 C3          -0.3330    -0.4560    -0.3930 ca         1 EYY       0.462600
      5 C4           0.1570    -1.6040     0.2870 ca         1 EYY      -0.230300
      6 C5           1.4770    -1.6790     0.6150 ca         1 EYY      -0.103000
      7 C6           2.3380    -0.6110     0.2730 ca         1 EYY      -0.163300
      8 C7           3.7170    -0.6030     0.5760 ca         1 EYY      -0.108000
      9 C8           4.4980     0.4620     0.2130 ca         1 EYY      -0.148000
     10 C9           3.9290     1.5580    -0.4660 ca         1 EYY      -0.137000
     11 C10          2.5930     1.5750    -0.7700 ca         1 EYY      -0.165300
     12 C11          1.7630     0.4900    -0.4070 ca         1 EYY       0.411600
     13 C           -4.1310     0.0970     0.3050 c          1 EYY       0.929600
     14 O           -4.5540     0.0130    -0.8640 o          1 EYY      -0.842300
     15 N            0.4460     0.5430    -0.7240 nb         1 EYY      -0.681000
     16 H1          -2.4620    -0.8450     1.2820 hc         1 EYY       0.022700
     17 H2          -2.2440     0.8600     1.0060 hc         1 EYY       0.022700
     18 H4          -2.1340    -1.2950    -1.1610 hc         1 EYY       0.063700
     19 H5          -1.9410     0.4270    -1.4580 hc         1 EYY       0.063700
     20 H6          -0.5240    -2.4070     0.5360 ha         1 EYY       0.146000
     21 H7           1.8750    -2.5460     1.1290 ha         1 EYY       0.123000
     22 H8           4.1460    -1.4500     1.0960 ha         1 EYY       0.120000
     23 H9           5.5540     0.4670     0.4470 ha         1 EYY       0.118000
     24 H10          4.5570     2.3930    -0.7500 ha         1 EYY       0.120000
     25 H11          2.1490     2.4150    -1.2890 ha         1 EYY       0.145000
@<TRIPOS>BOND
     1     1     3 1   
     2     1    13 1   
     3     1    16 1   
     4     1    17 1   
     5     2    13 1   
     6     3     4 1   
     7     3    18 1   
     8     3    19 1   
     9     4     5 ar  
    10     4    15 ar  
    11     5     6 ar  
    12     5    20 1   
    13     6     7 ar  
    14     6    21 1   
    15     7     8 ar  
    16     7    12 ar  
    17     8     9 ar  
    18     8    22 1   
    19     9    10 ar  
    20     9    23 1   
    21    10    11 ar  
    22    10    24 1   
    23    11    12 ar  
    24    11    25 1   
    25    12    15 ar  
    26    13    14 1   
@<TRIPOS>SUBSTRUCTURE
     1 EYY         1 TEMP              0 ****  ****    0 ROOT
