@<TRIPOS>MOLECULE
EYY
   25    26     1     0     0
SMALL
No Charge or Current Charge


@<TRIPOS>ATOM
      1 C1          -2.7000     0.0380     0.6020 c3         1 EYY      -0.205400
      2 O1          -4.8540    -0.9080     0.2930 o          1 EYY      -0.737000
      3 C2          -1.8230    -0.3950    -0.6060 c3         1 EYY      -0.121700
      4 C3          -0.3400    -0.4880    -0.2670 ca         1 EYY       0.397300
      5 C4           0.1610    -1.5730     0.4740 ca         1 EYY      -0.147000
      6 C5           1.5310    -1.6260     0.7700 ca         1 EYY      -0.085000
      7 C6           2.3520    -0.5820     0.3080 ca         1 EYY      -0.098000
      8 C7           3.7330    -0.5970     0.5840 ca         1 EYY      -0.090000
      9 C8           4.5520     0.4460     0.1220 ca         1 EYY      -0.130000
     10 C9           3.9930     1.5020    -0.6140 ca         1 EYY      -0.119000
     11 C10          2.6130     1.5150    -0.8890 ca         1 EYY      -0.082000
     12 C11          1.7740     0.4800    -0.4350 ca         1 EYY       0.281000
     13 C           -4.1820     0.1070     0.1940 c          1 EYY       0.719000
     14 O           -4.6050     1.1580    -0.2630 o          1 EYY      -0.737000
     15 N            0.4490     0.5180    -0.7140 nb         1 EYY      -0.681000
     16 H1          -2.5510    -0.7290     1.3720 hc         1 EYY       0.022700
     17 H2          -2.3350     1.0310     0.8940 hc         1 EYY       0.022700
     18 H4          -2.1710    -1.3690    -0.9700 hc         1 EYY       0.063700
     19 H5          -1.9800     0.3090    -1.4330 hc         1 EYY       0.063700
     20 H6          -0.5080    -2.3580     0.8140 ha         1 EYY       0.128000
     21 H7           1.9410    -2.4550     1.3430 ha         1 EYY       0.105000
     22 H8           4.1710    -1.4130     1.1540 ha         1 EYY       0.102000
     23 H9           5.6190     0.4350     0.3350 ha         1 EYY       0.100000
     24 H10          4.6260     2.3110    -0.9730 ha         1 EYY       0.102000
     25 H11          2.1880     2.3360    -1.4590 ha         1 EYY       0.127000
@<TRIPOS>BOND
     1     1     3 1   
     2     1    13 1   
     3     1    16 1   
     4     1    17 1   
     5     2    13 1   
     6     3     4 1   
     7     3    18 1   
     8     3    19 1   
     9     4     5 ar  
    10     4    15 ar  
    11     5     6 ar  
    12     5    20 1   
    13     6     7 ar  
    14     6    21 1   
    15     7     8 ar  
    16     7    12 ar  
    17     8     9 ar  
    18     8    22 1   
    19     9    10 ar  
    20     9    23 1   
    21    10    11 ar  
    22    10    24 1   
    23    11    12 ar  
    24    11    25 1   
    25    12    15 ar  
    26    13    14 1   
@<TRIPOS>SUBSTRUCTURE
     1 EYY         1 TEMP              0 ****  ****    0 ROOT
