@<TRIPOS>MOLECULE
EYZ
   44    44     1     0     0
SMALL
No Charge or Current Charge


@<TRIPOS>ATOM
      1 O           -8.6420    -0.8610     0.0210 o          1 EYZ      -0.740500
      2 C           -8.0300    -0.2850    -0.8700 c          1 EYZ       0.691000
      3 CA          -6.8400     0.6820    -0.4670 c3         1 EYZ       0.014500
      4 N           -7.1510     1.7020     0.6010 n8         1 EYZ      -0.996200
      5 CB          -5.5780    -0.1450    -0.0980 c3         1 EYZ      -0.051400
      6 CAD         -4.2690     0.6780    -0.0190 c3         1 EYZ      -0.071400
      7 CAE         -3.0280    -0.1880     0.2900 c3         1 EYZ      -0.097400
      8 CAF         -1.7270     0.6360     0.3700 c3         1 EYZ       0.101000
      9 NAG         -0.5640    -0.1950     0.6880 ns         1 EYZ      -0.509900
     10 CAL          0.1220    -0.9710    -0.2200 c          1 EYZ       0.598100
     11 OAK         -0.1910    -1.0310    -1.4010 o          1 EYZ      -0.631100
     12 CAJ          1.2790    -1.7860     0.3620 c3         1 EYZ      -0.134400
     13 CAM          2.6580    -1.2330    -0.0870 c3         1 EYZ      -0.048700
     14 CAN          3.8180    -2.2100     0.2440 c          1 EYZ       0.721000
     15 OAP          4.5080    -2.6150    -0.6810 o          1 EYZ      -0.713000
     16 OAO          3.9660    -2.5780     1.4020 o          1 EYZ      -0.713000
     17 SAQ          2.9290     0.4510     0.6620 ss         1 EYZ      -0.194000
     18 CAR          4.5000     1.0090     0.0050 ca         1 EYZ      -0.050000
     19 CAS          5.3510     1.7630     0.8330 ca         1 EYZ      -0.114500
     20 CAT          6.5860     2.2270     0.3470 ca         1 EYZ      -0.111500
     21 CAU          6.9720     1.9450    -0.9730 ca         1 EYZ      -0.155000
     22 CAV          6.1210     1.2010    -1.8090 ca         1 EYZ      -0.111500
     23 CAW          4.8860     0.7360    -1.3230 ca         1 EYZ      -0.114500
     24 H2          -6.5940     1.2500    -1.3760 h1         1 EYZ       0.036700
     25 H3          -7.9570     2.2640     0.3010 hn         1 EYZ       0.377500
     26 H4          -7.5100     1.2040     1.4250 hn         1 EYZ       0.377500
     27 H6          -5.7450    -0.6610     0.8560 hc         1 EYZ       0.036700
     28 H7          -5.4460    -0.9280    -0.8550 hc         1 EYZ       0.036700
     29 H8          -4.1140     1.1990    -0.9720 hc         1 EYZ       0.037700
     30 H9          -4.3650     1.4490     0.7550 hc         1 EYZ       0.037700
     31 H10         -3.1800    -0.7100     1.2420 hc         1 EYZ       0.035200
     32 H11         -2.9220    -0.9570    -0.4860 hc         1 EYZ       0.035200
     33 H12         -1.5510     1.1490    -0.5850 h1         1 EYZ       0.043700
     34 H13         -1.8270     1.4030     1.1500 h1         1 EYZ       0.043700
     35 H14         -0.2290    -0.2080     1.6440 hn         1 EYZ       0.310500
     36 H15          1.2360    -1.7860     1.4580 hc         1 EYZ       0.069700
     37 H16          1.1890    -2.8140    -0.0070 hc         1 EYZ       0.069700
     38 H17          2.6360    -1.1240    -1.1770 h1         1 EYZ       0.079700
     39 H19          5.0550     1.9860     1.8560 ha         1 EYZ       0.136000
     40 H20          7.2410     2.8060     0.9940 ha         1 EYZ       0.092000
     41 H21          7.9260     2.3040    -1.3500 ha         1 EYZ       0.087000
     42 H22          6.4160     0.9880    -2.8330 ha         1 EYZ       0.092000
     43 H23          4.2340     0.1750    -1.9860 ha         1 EYZ       0.136000
     44 O1          -8.3680    -0.3310    -2.0450 o          1 EYZ      -0.740500
@<TRIPOS>BOND
     1     1     2 1   
     2     2     3 1   
     3     2    44 1   
     4     3     4 1   
     5     3     5 1   
     6     3    24 1   
     7     4    25 1   
     8     4    26 1   
     9     5     6 1   
    10     5    27 1   
    11     5    28 1   
    12     6     7 1   
    13     6    29 1   
    14     6    30 1   
    15     7     8 1   
    16     7    31 1   
    17     7    32 1   
    18     8     9 1   
    19     8    33 1   
    20     8    34 1   
    21     9    10 1   
    22     9    35 1   
    23    10    11 2   
    24    10    12 1   
    25    12    13 1   
    26    12    36 1   
    27    12    37 1   
    28    13    14 1   
    29    13    17 1   
    30    13    38 1   
    31    14    15 1   
    32    14    16 1   
    33    17    18 1   
    34    18    19 ar  
    35    18    23 ar  
    36    19    20 ar  
    37    19    39 1   
    38    20    21 ar  
    39    20    40 1   
    40    21    22 ar  
    41    21    41 1   
    42    22    23 ar  
    43    22    42 1   
    44    23    43 1   
@<TRIPOS>SUBSTRUCTURE
     1 EYZ         1 TEMP              0 ****  ****    0 ROOT
