@<TRIPOS>MOLECULE
EYZ
   44    44     1     0     0
SMALL
bcc


@<TRIPOS>ATOM
      1 O           -8.6050     0.6220     1.5830 o          1 EYZ      -0.845800
      2 C           -8.0460     0.0930     0.6020 c          1 EYZ       0.901600
      3 CA          -6.7960     0.7990     0.0180 c3         1 EYZ       0.014500
      4 N           -6.5960     2.1740     0.4520 n8         1 EYZ      -0.885800
      5 CB          -5.5550    -0.0380     0.3370 c3         1 EYZ      -0.051400
      6 CAD         -4.2710     0.4810    -0.2990 c3         1 EYZ      -0.071400
      7 CAE         -3.0730    -0.4030     0.0190 c3         1 EYZ      -0.097400
      8 CAF         -1.7880     0.1110    -0.6110 c3         1 EYZ       0.101000
      9 NAG         -0.6750    -0.7560    -0.2820 ns         1 EYZ      -0.576900
     10 CAL          0.4330    -0.8720    -1.0250 c          1 EYZ       0.665100
     11 OAK          0.6230    -0.2300    -2.0500 o          1 EYZ      -0.631100
     12 CAJ          1.4310    -1.9010    -0.5290 c3         1 EYZ      -0.134400
     13 CAM          2.8660    -1.3830    -0.5280 c3         1 EYZ      -0.096600
     14 CAN          3.8330    -2.5500    -0.2060 c          1 EYZ       0.931600
     15 OAP          4.5700    -2.9180    -1.1410 o          1 EYZ      -0.818300
     16 OAO          3.7570    -3.0320     0.9350 o          1 EYZ      -0.818300
     17 SAQ          2.9310    -0.0520     0.7100 ss         1 EYZ      -0.273000
     18 CAR          4.3760     0.8650     0.3010 ca         1 EYZ       0.076900
     19 CAS          4.5360     2.0960     0.9450 ca         1 EYZ      -0.132500
     20 CAT          5.6520     2.8780     0.6950 ca         1 EYZ      -0.129500
     21 CAU          6.6220     2.4540    -0.2060 ca         1 EYZ      -0.173000
     22 CAV          6.4620     1.2350    -0.8470 ca         1 EYZ      -0.129500
     23 CAW          5.3520     0.4360    -0.5970 ca         1 EYZ      -0.132500
     24 H2          -6.9100     0.8140    -1.0730 h1         1 EYZ       0.036700
     25 H3          -7.3970     2.7240     0.1650 hn         1 EYZ       0.322300
     26 H4          -6.6360     2.1900     1.4660 hn         1 EYZ       0.322300
     27 H6          -5.4250    -0.0840     1.4260 hc         1 EYZ       0.036700
     28 H7          -5.7310    -1.0640     0.0080 hc         1 EYZ       0.036700
     29 H8          -4.4040     0.5370    -1.3850 hc         1 EYZ       0.037700
     30 H9          -4.0810     1.5020     0.0390 hc         1 EYZ       0.037700
     31 H10         -2.9460    -0.4630     1.1050 hc         1 EYZ       0.035200
     32 H11         -3.2610    -1.4230    -0.3300 hc         1 EYZ       0.035200
     33 H12         -1.8930     0.1500    -1.6960 h1         1 EYZ       0.043700
     34 H13         -1.5900     1.1330    -0.2730 h1         1 EYZ       0.043700
     35 H14         -0.7360    -1.2860     0.5730 hn         1 EYZ       0.310500
     36 H15          1.1660    -2.2790     0.4600 hc         1 EYZ       0.069700
     37 H16          1.3790    -2.7550    -1.2120 hc         1 EYZ       0.069700
     38 H17          3.0890    -0.9500    -1.5040 h1         1 EYZ       0.079700
     39 H19          3.7820     2.4470     1.6390 ha         1 EYZ       0.154000
     40 H20          5.7580     3.8280     1.2020 ha         1 EYZ       0.110000
     41 H21          7.4900     3.0690    -0.4040 ha         1 EYZ       0.105000
     42 H22          7.2120     0.8880    -1.5470 ha         1 EYZ       0.110000
     43 H23          5.2710    -0.5200    -1.0960 ha         1 EYZ       0.154000
     44 O1          -8.3790    -0.9760     0.0470 o          1 EYZ      -0.845800
@<TRIPOS>BOND
     1     1     2 1   
     2     2     3 1   
     3     2    44 1   
     4     3     4 1   
     5     3     5 1   
     6     3    24 1   
     7     4    25 1   
     8     4    26 1   
     9     5     6 1   
    10     5    27 1   
    11     5    28 1   
    12     6     7 1   
    13     6    29 1   
    14     6    30 1   
    15     7     8 1   
    16     7    31 1   
    17     7    32 1   
    18     8     9 1   
    19     8    33 1   
    20     8    34 1   
    21     9    10 1   
    22     9    35 1   
    23    10    11 2   
    24    10    12 1   
    25    12    13 1   
    26    12    36 1   
    27    12    37 1   
    28    13    14 1   
    29    13    17 1   
    30    13    38 1   
    31    14    15 1   
    32    14    16 1   
    33    17    18 1   
    34    18    19 ar  
    35    18    23 ar  
    36    19    20 ar  
    37    19    39 1   
    38    20    21 ar  
    39    20    40 1   
    40    21    22 ar  
    41    21    41 1   
    42    22    23 ar  
    43    22    42 1   
    44    23    43 1   
@<TRIPOS>SUBSTRUCTURE
     1 EYZ         1 TEMP              0 ****  ****    0 ROOT
