@<TRIPOS>MOLECULE
EZ1
   25    25     1     0     0
SMALL
No Charge or Current Charge


@<TRIPOS>ATOM
      1 C7           1.1800     0.1510    -1.0680 ca         1 EZ1       0.000500
      2 C13          1.5630     0.1740     1.3380 ca         1 EZ1       0.000500
      3 C6          -0.2070     0.2370    -0.8470 ca         1 EZ1      -0.132000
      4 C14          0.1760     0.2590     1.5520 ca         1 EZ1      -0.132000
      5 C8           2.0690     0.1170     0.0250 ca         1 EZ1      -0.279500
      6 C5          -0.7170     0.2910     0.4670 ca         1 EZ1       0.027000
      7 C1          -5.5210     1.6350    -0.4310 c2         1 EZ1      -0.287000
      8 C2          -4.8210     0.4970    -0.5770 c2         1 EZ1      -0.228200
      9 C3          -3.3270     0.4080    -0.8130 c3         1 EZ1       0.160800
     10 N11          4.2950     1.5700    -0.3450 n8         1 EZ1      -1.000100
     11 O10          4.5280    -0.4830     0.9360 o          1 EZ1      -0.544000
     12 O12          4.1260    -0.5110    -1.5910 o          1 EZ1      -0.544000
     13 S9           3.8390     0.0070    -0.2550 sy         1 EZ1       1.126600
     14 SE4         -2.4740     0.4010     0.8270 ss         1 EZ1      -0.299000
     15 H1           1.5570     0.1130    -2.0890 ha         1 EZ1       0.138500
     16 H2           2.2360     0.1530     2.1940 ha         1 EZ1       0.138500
     17 H3          -0.8640     0.2610    -1.7100 ha         1 EZ1       0.125500
     18 H4          -0.2080     0.3020     2.5680 ha         1 EZ1       0.125500
     19 H5          -5.0410     2.6150    -0.4720 ha         1 EZ1       0.168000
     20 H6          -6.5990     1.6260    -0.2620 ha         1 EZ1       0.168000
     21 H7          -5.3210    -0.4730    -0.5290 ha         1 EZ1       0.184000
     22 H8          -3.0830    -0.5150    -1.3560 h1         1 EZ1       0.068700
     23 H9          -2.9820     1.2680    -1.4020 h1         1 EZ1       0.068700
     24 H10          5.0490     1.5800     0.3380 hn         1 EZ1       0.472000
     25 H11          4.8050     1.5620    -1.2250 hn         1 EZ1       0.472000
@<TRIPOS>BOND
     1     1     3 ar  
     2     1     5 ar  
     3     1    15 1   
     4     2     4 ar  
     5     2     5 ar  
     6     2    16 1   
     7     3     6 ar  
     8     3    17 1   
     9     4     6 ar  
    10     4    18 1   
    11     5    13 1   
    12     6    14 1   
    13     7     8 2   
    14     7    19 1   
    15     7    20 1   
    16     8     9 1   
    17     8    21 1   
    18     9    14 1   
    19     9    22 1   
    20     9    23 1   
    21    10    13 1   
    22    10    24 1   
    23    10    25 1   
    24    11    13 2   
    25    12    13 2   
@<TRIPOS>SUBSTRUCTURE
     1 EZ1         1 TEMP              0 ****  ****    0 ROOT
