@<TRIPOS>MOLECULE
EZ1
   25    25     1     0     0
SMALL
abcg2


@<TRIPOS>ATOM
      1 C7           1.1910     0.3550    -1.0200 ca         1 EZ1       0.000500
      2 C13          1.6430     0.0200     1.3270 ca         1 EZ1       0.000500
      3 C6          -0.1490     0.5470    -0.7350 ca         1 EZ1      -0.132000
      4 C14          0.3010     0.2090     1.6080 ca         1 EZ1      -0.132000
      5 C8           2.0810     0.0940     0.0130 ca         1 EZ1      -0.279500
      6 C5          -0.6060     0.4740     0.5810 ca         1 EZ1       0.027000
      7 C1          -5.6360     1.4090    -0.7370 c2         1 EZ1      -0.287000
      8 C2          -4.7610     0.4480    -0.4640 c2         1 EZ1      -0.228200
      9 C3          -3.2950     0.5760    -0.7000 c3         1 EZ1       0.160800
     10 N11          4.3070     1.4010    -0.5650 n8         1 EZ1      -1.000100
     11 O10          4.4060    -0.8130     0.7790 o          1 EZ1      -0.544000
     12 O12          3.9090    -0.7850    -1.6720 o          1 EZ1      -0.544000
     13 S9           3.7880    -0.1560    -0.3640 sy         1 EZ1       1.126600
     14 SE4         -2.4200     0.7540     1.0560 ss         1 EZ1      -0.299000
     15 H1           1.5280     0.4120    -2.0470 ha         1 EZ1       0.138500
     16 H2           2.3300    -0.1920     2.1350 ha         1 EZ1       0.138500
     17 H3          -0.8250     0.7570    -1.5540 ha         1 EZ1       0.125500
     18 H4          -0.0310     0.1370     2.6370 ha         1 EZ1       0.125500
     19 H5          -5.3280     2.3590    -1.1570 ha         1 EZ1       0.168000
     20 H6          -6.6940     1.2740    -0.5560 ha         1 EZ1       0.168000
     21 H7          -5.1030    -0.4910    -0.0420 ha         1 EZ1       0.184000
     22 H8          -2.8970    -0.3200    -1.1810 h1         1 EZ1       0.068700
     23 H9          -3.0630     1.4460    -1.3150 h1         1 EZ1       0.068700
     24 H10          4.3970     1.8970     0.3160 hn         1 EZ1       0.472000
     25 H11          5.1870     1.4330    -1.0720 hn         1 EZ1       0.472000
@<TRIPOS>BOND
     1     1     3 ar  
     2     1     5 ar  
     3     1    15 1   
     4     2     4 ar  
     5     2     5 ar  
     6     2    16 1   
     7     3     6 ar  
     8     3    17 1   
     9     4     6 ar  
    10     4    18 1   
    11     5    13 1   
    12     6    14 1   
    13     7     8 2   
    14     7    19 1   
    15     7    20 1   
    16     8     9 1   
    17     8    21 1   
    18     9    14 1   
    19     9    22 1   
    20     9    23 1   
    21    10    13 1   
    22    10    24 1   
    23    10    25 1   
    24    11    13 2   
    25    12    13 2   
@<TRIPOS>SUBSTRUCTURE
     1 EZ1         1 TEMP              0 ****  ****    0 ROOT
