@<TRIPOS>MOLECULE
EZ2
   50    53     1     0     0
SMALL
bcc


@<TRIPOS>ATOM
      1 CAA          2.3350     2.9660    -2.1080 c3         1 EZ2      -0.107100
      2 CAD         -8.1200    -0.7120     1.6080 ca         1 EZ2      -0.068000
      3 CAE         -8.2240    -1.6920     0.6160 ca         1 EZ2      -0.168000
      4 CAF          8.3920    -1.9140     1.4570 cc         1 EZ2       0.299200
      5 CAG          3.9230     1.4680     0.8310 ca         1 EZ2      -0.099000
      6 CAH          3.8040     0.4140    -1.3100 ca         1 EZ2      -0.099000
      7 CAI          4.9820     0.6470     1.1860 ca         1 EZ2      -0.139000
      8 CAJ          4.8720    -0.4030    -0.9750 ca         1 EZ2      -0.139000
      9 CAK         -7.0010     0.0880     1.6970 ca         1 EZ2      -0.188000
     10 CAL         -7.1980    -1.8650    -0.2880 ca         1 EZ2      -0.036000
     11 CAM          7.6320    -0.7860     1.3880 cd         1 EZ2      -0.254600
     12 CAN          6.6920    -2.4320     0.2860 cd         1 EZ2       0.401400
     13 CAO         -1.4240     0.9690    -0.6370 c3         1 EZ2      -0.148400
     14 CAP         -2.6790     1.4550     0.0640 c3         1 EZ2      -0.110700
     15 CAU         -0.2900     1.9680    -0.5270 c          1 EZ2       0.665100
     16 CAV          3.3170     1.3630    -0.4160 ca         1 EZ2      -0.106300
     17 CAW          5.4590    -0.2910     0.2800 ca         1 EZ2       0.013800
     18 CAX         -3.8360     0.5130    -0.0720 cc         1 EZ2       0.684200
     19 CAY         -4.9370    -1.2170    -1.1620 c          1 EZ2       0.721100
     20 CAZ         -5.9670    -0.0920     0.7760 ca         1 EZ2       0.171600
     21 CBA         -6.0540    -1.0650    -0.2200 ca         1 EZ2      -0.223600
     22 CBB          2.1460     2.2490    -0.7740 c3         1 EZ2       0.165000
     23 NAQ          7.7940    -2.9340     0.7690 nc         1 EZ2      -0.667000
     24 NAR         -4.8300     0.6770     0.8180 na         1 EZ2      -0.709600
     25 NAS          0.9300     1.4500    -0.7500 ns         1 EZ2      -0.574900
     26 NAT         -3.8590    -0.3760    -1.0150 nd         1 EZ2      -0.726100
     27 NBC          6.5400    -1.1260     0.6280 na         1 EZ2      -0.129000
     28 OAB         -0.4730     3.1500    -0.2700 o          1 EZ2      -0.614100
     29 OAC         -4.9490    -2.0570    -2.0500 o          1 EZ2      -0.538100
     30 H1           1.5020     3.6420    -2.2970 hc         1 EZ2       0.047367
     31 H2           3.2520     3.5560    -2.0950 hc         1 EZ2       0.047367
     32 H3           2.3940     2.2640    -2.9410 hc         1 EZ2       0.047367
     33 H5          -9.1100    -2.3110     0.5590 ha         1 EZ2       0.141000
     34 H6           9.3380    -2.0410     1.9600 h4         1 EZ2       0.040100
     35 H7           3.5580     2.1950     1.5450 ha         1 EZ2       0.141000
     36 H8           3.3650     0.3090    -2.2940 ha         1 EZ2       0.141000
     37 H9           5.4200     0.7300     2.1720 ha         1 EZ2       0.147000
     38 H10          5.2540    -1.1100    -1.7000 ha         1 EZ2       0.147000
     39 H11         -6.9190     0.8470     2.4640 ha         1 EZ2       0.137000
     40 H12         -7.2680    -2.6220    -1.0580 ha         1 EZ2       0.159000
     41 H13          7.7780     0.2060     1.7790 h4         1 EZ2       0.178000
     42 H14          5.9540    -2.9640    -0.2950 h5         1 EZ2       0.057100
     43 H15         -1.1110     0.0040    -0.2340 hc         1 EZ2       0.081700
     44 H16         -1.6250     0.8020    -1.6980 hc         1 EZ2       0.081700
     45 H17         -2.4840     1.6250     1.1250 hc         1 EZ2       0.074200
     46 H18         -2.9930     2.4200    -0.3430 hc         1 EZ2       0.074200
     47 H19          2.0490     3.0060     0.0070 h1         1 EZ2       0.077700
     48 H20         -4.7440     1.3890     1.5300 hn         1 EZ2       0.452800
     49 H21          1.0020     0.4730    -0.9900 hn         1 EZ2       0.317500
     50 H4          -8.9260    -0.5770     2.3170 ha         1 EZ2       0.136000
@<TRIPOS>BOND
     1     1    22 1   
     2     1    30 1   
     3     1    31 1   
     4     1    32 1   
     5     2     3 ar  
     6     2     9 ar  
     7     2    50 1   
     8     3    10 ar  
     9     3    33 1   
    10     4    11 2   
    11     4    23 1   
    12     4    34 1   
    13     5     7 ar  
    14     5    16 ar  
    15     5    35 1   
    16     6     8 ar  
    17     6    16 ar  
    18     6    36 1   
    19     7    17 ar  
    20     7    37 1   
    21     8    17 ar  
    22     8    38 1   
    23     9    20 ar  
    24     9    39 1   
    25    10    21 ar  
    26    10    40 1   
    27    11    27 1   
    28    11    41 1   
    29    12    23 2   
    30    12    27 1   
    31    12    42 1   
    32    13    14 1   
    33    13    15 1   
    34    13    43 1   
    35    13    44 1   
    36    14    18 1   
    37    14    45 1   
    38    14    46 1   
    39    15    25 1   
    40    15    28 2   
    41    16    22 1   
    42    17    27 1   
    43    18    24 1   
    44    18    26 2   
    45    19    21 1   
    46    19    26 1   
    47    19    29 2   
    48    20    21 ar  
    49    20    24 1   
    50    22    25 1   
    51    22    47 1   
    52    24    48 1   
    53    25    49 1   
@<TRIPOS>SUBSTRUCTURE
     1 EZ2         1 TEMP              0 ****  ****    0 ROOT
