@<TRIPOS>MOLECULE
EZ2
   50    53     1     0     0
SMALL
No Charge or Current Charge


@<TRIPOS>ATOM
      1 CAA          2.3410     3.4180    -1.7190 c3         1 EZ2      -0.107100
      2 CAD         -8.1950    -0.2890     0.0290 ca         1 EZ2      -0.050000
      3 CAE         -8.1040    -1.6910     0.0480 ca         1 EZ2      -0.150000
      4 CAF          8.1120    -1.8800     1.0530 cc         1 EZ2       0.233900
      5 CAG          3.9550     1.3130     0.7980 ca         1 EZ2      -0.081000
      6 CAH          3.5310     0.5480    -1.4710 ca         1 EZ2      -0.081000
      7 CAI          4.9770     0.3570     0.9290 ca         1 EZ2      -0.121000
      8 CAJ          4.5530    -0.4080    -1.3390 ca         1 EZ2      -0.121000
      9 CAK         -7.0330     0.4870     0.1850 ca         1 EZ2      -0.170000
     10 CAL         -6.8550    -2.3110     0.2210 ca         1 EZ2      -0.018000
     11 CAM          7.5600    -0.9760     0.1830 cd         1 EZ2      -0.222000
     12 CAN          6.0480    -2.4940     0.8660 cd         1 EZ2       0.401400
     13 CAO         -1.6120     1.4730    -0.5130 c3         1 EZ2      -0.148400
     14 CAP         -2.1970     0.9860     0.8410 c3         1 EZ2      -0.110700
     15 CAU         -0.3890     2.3700    -0.3090 c          1 EZ2       0.598100
     16 CAV          3.2260     1.4200    -0.4040 ca         1 EZ2      -0.106300
     17 CAW          5.2810    -0.5090    -0.1410 ca         1 EZ2       0.013800
     18 CAX         -3.4010     0.1010     0.6930 cc         1 EZ2       0.684200
     19 CAY         -4.3600    -2.0910     0.5600 c          1 EZ2       0.721100
     20 CAZ         -5.7860    -0.1340     0.3580 ca         1 EZ2       0.310000
     21 CBA         -5.7000    -1.5160     0.3750 ca         1 EZ2      -0.223600
     22 CBB          2.1150     2.4590    -0.5310 c3         1 EZ2       0.165000
     23 NAQ          7.1900    -2.8070     1.4750 nc         1 EZ2      -0.667000
     24 NAR         -4.6560     0.6480     0.5080 na         1 EZ2      -0.903200
     25 NAS          0.8180     1.7930    -0.6270 ns         1 EZ2      -0.507900
     26 NAT         -3.2970    -1.2090     0.7050 nd         1 EZ2      -0.726100
     27 NBC          6.2880    -1.4660    -0.0280 na         1 EZ2      -0.078300
     28 OAB         -0.4820     3.5230     0.0870 o          1 EZ2      -0.614100
     29 OAC         -4.1510    -3.2940     0.5880 o          1 EZ2      -0.538100
     30 H1           1.5840     4.2110    -1.7260 hc         1 EZ2       0.047367
     31 H2           3.3270     3.8910    -1.6440 hc         1 EZ2       0.047367
     32 H3           2.2850     2.8860    -2.6760 hc         1 EZ2       0.047367
     33 H5          -9.0000    -2.2970    -0.0720 ha         1 EZ2       0.123000
     34 H6           9.1200    -1.8960     1.4490 h4         1 EZ2       0.040100
     35 H7           3.7320     1.9730     1.6340 ha         1 EZ2       0.123000
     36 H8           2.9760     0.6070    -2.4040 ha         1 EZ2       0.123000
     37 H9           5.5320     0.2900     1.8620 ha         1 EZ2       0.129000
     38 H10          4.7780    -1.0730    -2.1700 ha         1 EZ2       0.129000
     39 H11         -7.1060     1.5710     0.1700 ha         1 EZ2       0.119000
     40 H12         -6.7870    -3.3980     0.2340 ha         1 EZ2       0.141000
     41 H13          7.9610    -0.0840    -0.2810 h4         1 EZ2       0.160000
     42 H14          5.0700    -2.9390     1.0110 h5         1 EZ2       0.057100
     43 H15         -1.3380     0.5950    -1.1090 hc         1 EZ2       0.081700
     44 H16         -2.3810     2.0500    -1.0400 hc         1 EZ2       0.081700
     45 H17         -1.4190     0.4470     1.3950 hc         1 EZ2       0.074200
     46 H18         -2.4620     1.8540     1.4580 hc         1 EZ2       0.074200
     47 H19          2.1110     3.0680     0.3840 h1         1 EZ2       0.077700
     48 H20         -4.7370     1.6570     0.4870 hn         1 EZ2       0.508000
     49 H21          0.7990     0.8300    -0.9370 hn         1 EZ2       0.317500
     50 H4          -9.1610     0.1940    -0.1040 ha         1 EZ2       0.118000
@<TRIPOS>BOND
     1     1    22 1   
     2     1    30 1   
     3     1    31 1   
     4     1    32 1   
     5     2     3 ar  
     6     2     9 ar  
     7     2    50 1   
     8     3    10 ar  
     9     3    33 1   
    10     4    11 2   
    11     4    23 1   
    12     4    34 1   
    13     5     7 ar  
    14     5    16 ar  
    15     5    35 1   
    16     6     8 ar  
    17     6    16 ar  
    18     6    36 1   
    19     7    17 ar  
    20     7    37 1   
    21     8    17 ar  
    22     8    38 1   
    23     9    20 ar  
    24     9    39 1   
    25    10    21 ar  
    26    10    40 1   
    27    11    27 1   
    28    11    41 1   
    29    12    23 2   
    30    12    27 1   
    31    12    42 1   
    32    13    14 1   
    33    13    15 1   
    34    13    43 1   
    35    13    44 1   
    36    14    18 1   
    37    14    45 1   
    38    14    46 1   
    39    15    25 1   
    40    15    28 2   
    41    16    22 1   
    42    17    27 1   
    43    18    24 1   
    44    18    26 2   
    45    19    21 1   
    46    19    26 1   
    47    19    29 2   
    48    20    21 ar  
    49    20    24 1   
    50    22    25 1   
    51    22    47 1   
    52    24    48 1   
    53    25    49 1   
@<TRIPOS>SUBSTRUCTURE
     1 EZ2         1 TEMP              0 ****  ****    0 ROOT
