@<TRIPOS>MOLECULE
EZ3
   42    44     1     0     0
SMALL
abcg2


@<TRIPOS>ATOM
      1 C4         -47.6790    -6.7290   -62.0160 c6         1 EZ3       0.199300
      2 C5         -49.1680    -6.6520   -61.7360 c3         1 EZ3       0.155300
      3 C6         -49.6190    -5.2500   -61.2980 c6         1 EZ3       0.139300
      4 C7         -51.1300    -5.1790   -61.0410 c6         1 EZ3      -0.105400
      5 C8         -51.4310    -4.0240   -60.0890 c6         1 EZ3      -0.068400
      6 C10        -49.4890    -5.1250   -58.8940 c6         1 EZ3       0.164300
      7 C13        -44.8900    -9.1310   -62.5420 ca         1 EZ3      -0.258000
      8 C15        -43.0780    -7.9170   -63.6200 ca         1 EZ3      -0.214000
      9 C          -43.9350    -6.8490   -63.8520 ca         1 EZ3       0.261100
     10 O          -43.4570    -5.7750   -64.5030 oh         1 EZ3      -0.540100
     11 C1         -45.2780    -6.9070   -63.4050 ca         1 EZ3      -0.342600
     12 C11        -48.4590    -4.8930   -57.8090 c3         1 EZ3      -0.088100
     13 C12        -46.1720    -5.7860   -63.6500 c          1 EZ3       0.701700
     14 C14        -43.5570    -9.0470   -62.9680 ca         1 EZ3       0.212100
     15 C2         -45.7420    -8.0700   -62.7640 ca         1 EZ3       0.047700
     16 C3         -47.1910    -8.1170   -62.3770 c6         1 EZ3      -0.075100
     17 C9         -50.7450    -4.2590   -58.7320 c6         1 EZ3      -0.101400
     18 O1         -49.8730    -7.0670   -62.9060 oh         1 EZ3      -0.708000
     19 O2         -48.8590    -4.8360   -60.1540 os         1 EZ3      -0.461000
     20 O3         -47.3890    -5.7920   -63.0980 os         1 EZ3      -0.416100
     21 O4         -45.8730    -4.8210   -64.3570 o          1 EZ3      -0.555000
     22 O5         -42.6820   -10.0610   -62.7680 oh         1 EZ3      -0.526100
     23 H1         -47.1500    -6.3630   -61.1350 h1         1 EZ3       0.077700
     24 H2         -49.3590    -7.3490   -60.9120 h1         1 EZ3       0.034700
     25 H3         -49.3600    -4.5400   -62.0860 h1         1 EZ3       0.101700
     26 H4         -51.6480    -5.0510   -61.9910 hc         1 EZ3       0.046700
     27 H5         -51.4870    -6.1180   -60.6030 hc         1 EZ3       0.046700
     28 H6         -51.0620    -3.0960   -60.5350 hc         1 EZ3       0.050200
     29 H7         -52.5080    -3.9060   -59.9600 hc         1 EZ3       0.050200
     30 H8         -49.7780    -6.1820   -58.8850 h1         1 EZ3       0.024700
     31 H9         -45.2430   -10.0270   -62.0450 ha         1 EZ3       0.119000
     32 H10        -42.0500    -7.8700   -63.9540 ha         1 EZ3       0.151000
     33 H11        -44.2180    -5.1550   -64.6260 ho         1 EZ3       0.520000
     34 H12        -48.9030    -5.0710   -56.8280 hc         1 EZ3       0.045367
     35 H13        -47.6060    -5.5620   -57.9310 hc         1 EZ3       0.045367
     36 H14        -48.1030    -3.8600   -57.8420 hc         1 EZ3       0.045367
     37 H15        -47.7830    -8.5050   -63.2100 hc         1 EZ3       0.077200
     38 H16        -47.3430    -8.7820   -61.5270 hc         1 EZ3       0.077200
     39 H17        -50.4760    -3.3030   -58.2760 hc         1 EZ3       0.047700
     40 H18        -51.4250    -4.7640   -58.0400 hc         1 EZ3       0.047700
     41 H19        -50.7560    -7.3560   -62.6480 ho         1 EZ3       0.503000
     42 H20        -43.1150   -10.7960   -62.3110 ho         1 EZ3       0.469000
@<TRIPOS>BOND
     1     1     2 1   
     2     1    16 1   
     3     1    20 1   
     4     1    23 1   
     5     2     3 1   
     6     2    18 1   
     7     2    24 1   
     8     3     4 1   
     9     3    19 1   
    10     3    25 1   
    11     4     5 1   
    12     4    26 1   
    13     4    27 1   
    14     5    17 1   
    15     5    28 1   
    16     5    29 1   
    17     6    12 1   
    18     6    17 1   
    19     6    19 1   
    20     6    30 1   
    21     7    14 ar  
    22     7    15 ar  
    23     7    31 1   
    24     8     9 ar  
    25     8    14 ar  
    26     8    32 1   
    27     9    10 1   
    28     9    11 ar  
    29    10    33 1   
    30    11    13 1   
    31    11    15 ar  
    32    12    34 1   
    33    12    35 1   
    34    12    36 1   
    35    13    20 1   
    36    13    21 2   
    37    14    22 1   
    38    15    16 1   
    39    16    37 1   
    40    16    38 1   
    41    17    39 1   
    42    17    40 1   
    43    18    41 1   
    44    22    42 1   
@<TRIPOS>SUBSTRUCTURE
     1 EZ3         1 TEMP              0 ****  ****    0 ROOT
