@<TRIPOS>MOLECULE
EZ3
   42    44     1     0     0
SMALL
No Charge or Current Charge


@<TRIPOS>ATOM
      1 C4         -47.7320    -6.6100   -62.1620 c6         1 EZ3       0.199300
      2 C5         -49.2780    -6.5260   -61.8960 c3         1 EZ3       0.155300
      3 C6         -49.7420    -5.0970   -61.4300 c6         1 EZ3       0.139300
      4 C7         -51.2640    -5.0070   -61.0810 c6         1 EZ3      -0.105400
      5 C8         -51.5110    -4.1460   -59.8190 c6         1 EZ3      -0.068400
      6 C10        -49.2890    -5.1990   -59.0240 c6         1 EZ3       0.164300
      7 C13        -44.9170    -9.0850   -62.3580 ca         1 EZ3      -0.258000
      8 C15        -43.0420    -7.9760   -63.4150 ca         1 EZ3      -0.214000
      9 C          -43.8780    -6.9230   -63.8030 ca         1 EZ3       0.261100
     10 O          -43.3410    -5.8990   -64.5190 oh         1 EZ3      -0.540100
     11 C1         -45.2450    -6.9320   -63.4600 ca         1 EZ3      -0.342600
     12 C11        -48.1870    -4.7900   -58.0200 c3         1 EZ3      -0.088100
     13 C12        -46.1680    -5.8160   -63.8840 c          1 EZ3       0.701700
     14 C14        -43.5590    -9.0540   -62.6940 ca         1 EZ3       0.212100
     15 C2         -45.7590    -8.0260   -62.7380 ca         1 EZ3       0.047700
     16 C3         -47.2320    -8.0500   -62.3790 c6         1 EZ3      -0.075100
     17 C9         -50.7070    -4.7010   -58.6110 c6         1 EZ3      -0.101400
     18 O1         -50.0410    -6.9690   -63.0450 oh         1 EZ3      -0.708000
     19 O2         -48.9290    -4.6480   -60.3080 os         1 EZ3      -0.461000
     20 O3         -47.4080    -5.7860   -63.3040 os         1 EZ3      -0.416100
     21 O4         -45.8290    -4.9810   -64.7130 o          1 EZ3      -0.555000
     22 O5         -42.7400   -10.0760   -62.3260 oh         1 EZ3      -0.526100
     23 H1         -47.2030    -6.2020   -61.2880 h1         1 EZ3       0.077700
     24 H2         -49.4820    -7.2130   -61.0630 h1         1 EZ3       0.034700
     25 H3         -49.5410    -4.4070   -62.2630 h1         1 EZ3       0.101700
     26 H4         -51.8190    -4.5940   -61.9340 hc         1 EZ3       0.046700
     27 H5         -51.6750    -6.0110   -60.9030 hc         1 EZ3       0.046700
     28 H6         -51.2060    -3.1100   -60.0200 hc         1 EZ3       0.050200
     29 H7         -52.5830    -4.1130   -59.5780 hc         1 EZ3       0.050200
     30 H8         -49.2940    -6.2960   -59.0960 h1         1 EZ3       0.024700
     31 H9         -45.3240    -9.9260   -61.8020 ha         1 EZ3       0.119000
     32 H10        -41.9890    -7.9570   -63.6810 ha         1 EZ3       0.151000
     33 H11        -44.0970    -5.3160   -64.7780 ho         1 EZ3       0.520000
     34 H12        -48.3930    -5.1980   -57.0240 hc         1 EZ3       0.045367
     35 H13        -47.2080    -5.1680   -58.3370 hc         1 EZ3       0.045367
     36 H14        -48.1140    -3.7000   -57.9290 hc         1 EZ3       0.045367
     37 H15        -47.7990    -8.5370   -63.1830 hc         1 EZ3       0.077200
     38 H16        -47.3980    -8.6410   -61.4680 hc         1 EZ3       0.077200
     39 H17        -50.6380    -3.9250   -57.8360 hc         1 EZ3       0.047700
     40 H18        -51.2540    -5.5370   -58.1540 hc         1 EZ3       0.047700
     41 H19        -50.9780    -7.0640   -62.7610 ho         1 EZ3       0.503000
     42 H20        -43.2780   -10.7330   -61.8370 ho         1 EZ3       0.469000
@<TRIPOS>BOND
     1     1     2 1   
     2     1    16 1   
     3     1    20 1   
     4     1    23 1   
     5     2     3 1   
     6     2    18 1   
     7     2    24 1   
     8     3     4 1   
     9     3    19 1   
    10     3    25 1   
    11     4     5 1   
    12     4    26 1   
    13     4    27 1   
    14     5    17 1   
    15     5    28 1   
    16     5    29 1   
    17     6    12 1   
    18     6    17 1   
    19     6    19 1   
    20     6    30 1   
    21     7    14 ar  
    22     7    15 ar  
    23     7    31 1   
    24     8     9 ar  
    25     8    14 ar  
    26     8    32 1   
    27     9    10 1   
    28     9    11 ar  
    29    10    33 1   
    30    11    13 1   
    31    11    15 ar  
    32    12    34 1   
    33    12    35 1   
    34    12    36 1   
    35    13    20 1   
    36    13    21 2   
    37    14    22 1   
    38    15    16 1   
    39    16    37 1   
    40    16    38 1   
    41    17    39 1   
    42    17    40 1   
    43    18    41 1   
    44    22    42 1   
@<TRIPOS>SUBSTRUCTURE
     1 EZ3         1 TEMP              0 ****  ****    0 ROOT
