@<TRIPOS>MOLECULE
EZ4
   21    20     1     0     0
SMALL
bcc


@<TRIPOS>ATOM
      1 OAA         -0.0980     0.5110     1.5190 oh         1 EZ4      -0.592800
      2 OAB         -2.0110    -0.5810    -1.4150 oh         1 EZ4      -0.562800
      3 OAC          3.0470     1.6960     0.0620 o          1 EZ4      -0.076700
      4 NAD          2.3300     1.0690    -0.6470 n2         1 EZ4       0.067700
      5 CAE          2.0230    -0.2830    -0.0750 c          1 EZ4       0.412100
      6 CAF          0.6360    -0.7550    -0.4180 c3         1 EZ4       0.058100
      7 CAG         -0.3650     0.2630     0.1580 c3         1 EZ4       0.073100
      8 CAH         -1.8190    -0.1740    -0.0840 c3         1 EZ4       0.122100
      9 CAI         -2.7820     0.9300     0.3250 c3         1 EZ4       0.104400
     10 OAJ         -4.0950     0.4340     0.2360 oh         1 EZ4      -0.583800
     11 OAK          2.8640    -0.8860     0.5160 o          1 EZ4      -0.453100
     12 OAL          0.4230    -2.0680    -0.0060 oh         1 EZ4      -0.558800
     13 HOAA        -0.4210    -0.2220     2.0540 ho         1 EZ4       0.412000
     14 HOAB        -1.9890     0.1950    -1.9870 ho         1 EZ4       0.400000
     15 HAF          0.5550    -0.7330    -1.5100 h1         1 EZ4       0.120700
     16 HAG         -0.2020     1.2180    -0.3580 h1         1 EZ4       0.083700
     17 HAH         -2.0210    -1.0570     0.5330 h1         1 EZ4       0.093700
     18 HAI         -2.5410     1.2620     1.3410 h1         1 EZ4       0.028200
     19 HAIA        -2.6280     1.7980    -0.3360 h1         1 EZ4       0.028200
     20 HOAJ        -4.6960     1.1330     0.5080 ho         1 EZ4       0.408000
     21 HOAL         0.6560    -2.1710     0.9230 ho         1 EZ4       0.414000
@<TRIPOS>BOND
     1     1     7 1   
     2     1    13 1   
     3     2     8 1   
     4     2    14 1   
     5     3     4 2   
     6     4     5 1   
     7     5     6 1   
     8     5    11 2   
     9     6     7 1   
    10     6    12 1   
    11     6    15 1   
    12     7     8 1   
    13     7    16 1   
    14     8     9 1   
    15     8    17 1   
    16     9    10 1   
    17     9    18 1   
    18     9    19 1   
    19    10    20 1   
    20    12    21 1   
@<TRIPOS>SUBSTRUCTURE
     1 EZ4         1 TEMP              0 ****  ****    0 ROOT
