@<TRIPOS>MOLECULE
EZ4
   21    20     1     0     0
SMALL
No Charge or Current Charge


@<TRIPOS>ATOM
      1 OAA         -0.4100     0.3720     1.8030 oh         1 EZ4      -0.715000
      2 OAB         -1.8240    -0.0630    -1.6100 oh         1 EZ4      -0.685000
      3 OAC          3.5120     1.4000    -0.8830 o          1 EZ4      -0.076700
      4 NAD          2.3910     0.9120    -0.8590 n2         1 EZ4       0.067700
      5 CAE          2.1220    -0.1560     0.0580 c          1 EZ4       0.412100
      6 CAF          0.6800    -0.7380    -0.0390 c3         1 EZ4       0.081300
      7 CAG         -0.4040     0.3060     0.3670 c3         1 EZ4       0.096300
      8 CAH         -1.8250    -0.0480    -0.1730 c3         1 EZ4       0.145300
      9 CAI         -2.9200     0.9610     0.2670 c3         1 EZ4       0.127600
     10 OAJ         -4.1360     0.7020    -0.4620 oh         1 EZ4      -0.706000
     11 OAK          2.9830    -0.6410     0.7900 o          1 EZ4      -0.453100
     12 OAL          0.5060    -1.9320     0.7830 oh         1 EZ4      -0.681000
     13 HOAA        -0.1510    -0.5450     2.0770 ho         1 EZ4       0.511000
     14 HOAB        -2.7660     0.1420    -1.8320 ho         1 EZ4       0.499000
     15 HAF          0.5390    -0.9800    -1.1030 h1         1 EZ4       0.120700
     16 HAG         -0.1360     1.2870    -0.0530 h1         1 EZ4       0.083700
     17 HAH         -2.1060    -1.0380     0.2140 h1         1 EZ4       0.093700
     18 HAI         -3.0910     0.8600     1.3470 h1         1 EZ4       0.028200
     19 HAIA        -2.5710     1.9850     0.0770 h1         1 EZ4       0.028200
     20 HOAJ        -4.8330     1.2920    -0.0850 ho         1 EZ4       0.507000
     21 HOAL         1.3050    -2.5000     0.6560 ho         1 EZ4       0.513000
@<TRIPOS>BOND
     1     1     7 1   
     2     1    13 1   
     3     2     8 1   
     4     2    14 1   
     5     3     4 2   
     6     4     5 1   
     7     5     6 1   
     8     5    11 2   
     9     6     7 1   
    10     6    12 1   
    11     6    15 1   
    12     7     8 1   
    13     7    16 1   
    14     8     9 1   
    15     8    17 1   
    16     9    10 1   
    17     9    18 1   
    18     9    19 1   
    19    10    20 1   
    20    12    21 1   
@<TRIPOS>SUBSTRUCTURE
     1 EZ4         1 TEMP              0 ****  ****    0 ROOT
