@<TRIPOS>MOLECULE
EZ5
  100   103     1     0     0
SMALL
abcg2


@<TRIPOS>ATOM
      1 C01        -23.3100   -21.0620     4.4090 c3         1 EZ5       0.146900
      2 C03        -21.3920   -20.5420     3.1420 c3         1 EZ5       0.164600
      3 C04        -19.8840   -20.4030     3.2300 c5         1 EZ5      -0.032500
      4 C05        -19.1720   -21.6980     3.6520 c5         1 EZ5      -0.068400
      5 C06        -17.7780   -21.5550     3.0420 c5         1 EZ5      -0.079400
      6 C07        -18.0070   -20.8930     1.6670 c5         1 EZ5      -0.019500
      7 C08        -18.1700   -21.9320     0.5150 c3         1 EZ5      -0.074700
      8 C09        -19.6100   -22.3330     0.1870 c3         1 EZ5      -0.083100
      9 C10        -17.3670   -21.5350    -0.7390 c3         1 EZ5       0.161300
     10 C12        -17.8750   -20.3080    -1.5040 c3         1 EZ5       0.234500
     11 C14        -17.5750   -20.3540    -3.8980 c6         1 EZ5       0.361300
     12 C16        -17.8290   -18.0300    -4.4030 c6         1 EZ5       0.138300
     13 C17        -18.8930   -17.0160    -4.7620 c3         1 EZ5       0.168600
     14 C19        -20.1410   -16.2610    -6.7180 c3         1 EZ5       0.216200
     15 C20        -19.2280   -15.0880    -7.1040 c3         1 EZ5      -0.113100
     16 C21        -21.3000   -15.7770    -5.8370 c3         1 EZ5      -0.113100
     17 C22        -20.7030   -16.8750    -7.9750 c2         1 EZ5      -0.227200
     18 C23        -20.5660   -18.1360    -8.3650 c2         1 EZ5      -0.286000
     19 C24        -16.6640   -18.0490    -5.4040 c6         1 EZ5       0.151300
     20 C26        -15.6940   -19.1670    -5.0720 c6         1 EZ5       0.174300
     21 C28        -16.4440   -20.4830    -4.9210 c6         1 EZ5       0.117300
     22 C30        -17.9070   -19.0450    -0.6840 c2         1 EZ5      -0.133400
     23 C31        -16.8530   -18.2930    -0.3430 c2         1 EZ5      -0.081400
     24 C32        -17.2930   -17.0710     0.4310 c5         1 EZ5      -0.084200
     25 C33        -18.7630   -16.9680     0.0250 c5         1 EZ5       0.168300
     26 C34        -19.2130   -18.4460    -0.1660 c5         1 EZ5       0.039400
     27 C35        -20.3780   -18.5180    -1.1640 c3         1 EZ5      -0.082100
     28 C36        -19.6900   -19.0090     1.1560 c2         1 EZ5      -0.194200
     29 C37        -19.2200   -20.0020     1.9070 c2         1 EZ5      -0.105400
     30 C39        -15.4010   -18.5470    -0.6340 c3         1 EZ5      -0.037500
     31 C40        -14.5740   -18.6520     0.6540 c3         1 EZ5      -0.085100
     32 C41        -14.8520   -17.4520    -1.5610 c3         1 EZ5       0.113000
     33 C43        -12.8510   -17.0820    -2.9470 c          1 EZ5       0.596100
     34 C44        -11.6700   -17.7480    -3.6190 c3         1 EZ5      -0.173100
     35 N42        -13.6190   -17.8910    -2.1950 ns         1 EZ5      -0.510900
     36 O02        -21.9060   -20.8750     4.4260 os         1 EZ5      -0.465000
     37 O11        -17.3540   -22.6130    -1.6820 oh         1 EZ5      -0.731000
     38 O13        -17.0140   -20.1090    -2.6460 os         1 EZ5      -0.474000
     39 O15        -18.4540   -19.3190    -4.3160 os         1 EZ5      -0.470000
     40 O18        -19.3820   -17.2890    -6.0640 os         1 EZ5      -0.467000
     41 O25        -15.9560   -16.8090    -5.3530 oh         1 EZ5      -0.704000
     42 O27        -14.7260   -19.2630    -6.1160 oh         1 EZ5      -0.654000
     43 O29        -15.4830   -21.4730    -4.5750 oh         1 EZ5      -0.719000
     44 O38        -19.6030   -16.2680     0.9370 oh         1 EZ5      -0.655000
     45 O45        -13.0910   -15.8780    -3.0730 o          1 EZ5      -0.609100
     46 H011       -23.6230   -21.3010     5.4250 h1         1 EZ5       0.029033
     47 H013       -23.8260   -20.1520     4.0770 h1         1 EZ5       0.029033
     48 H012       -23.5920   -21.8850     3.7410 h1         1 EZ5       0.029033
     49 H031       -21.8560   -19.6100     2.7990 h1         1 EZ5       0.026200
     50 H032       -21.6530   -21.3290     2.4220 h1         1 EZ5       0.026200
     51 H041       -19.6630   -19.6280     3.9740 hc         1 EZ5       0.068700
     52 H051       -19.6890   -22.5610     3.2250 hc         1 EZ5       0.050200
     53 H052       -19.1550   -21.8310     4.7330 hc         1 EZ5       0.050200
     54 H062       -17.2390   -22.5000     2.9650 hc         1 EZ5       0.043700
     55 H061       -17.1790   -20.8850     3.6650 hc         1 EZ5       0.043700
     56 H071       -17.1420   -20.2820     1.4230 hc         1 EZ5       0.062700
     57 H081       -17.6630   -22.8380     0.8650 hc         1 EZ5       0.037700
     58 H091       -20.0970   -22.7710     1.0580 hc         1 EZ5       0.039367
     59 H092       -20.2120   -21.4830    -0.1300 hc         1 EZ5       0.039367
     60 H093       -19.6180   -23.0760    -0.6100 hc         1 EZ5       0.039367
     61 H101       -16.3390   -21.3230    -0.4230 h1         1 EZ5       0.042700
     62 H121       -18.8780   -20.5260    -1.8700 h1         1 EZ5       0.067700
     63 H141       -18.1910   -21.2560    -3.8820 h2         1 EZ5       0.081700
     64 H161       -17.4370   -17.7560    -3.4200 h1         1 EZ5       0.066700
     65 H171       -18.4490   -16.0190    -4.6990 h1         1 EZ5       0.036200
     66 H172       -19.6980   -17.0720    -4.0240 h1         1 EZ5       0.036200
     67 H202       -18.8570   -14.5690    -6.2200 hc         1 EZ5       0.043033
     68 H201       -18.3780   -15.4540    -7.6830 hc         1 EZ5       0.043033
     69 H203       -19.7780   -14.3670    -7.7090 hc         1 EZ5       0.043033
     70 H212       -20.9320   -15.2420    -4.9610 hc         1 EZ5       0.043033
     71 H213       -21.9370   -15.0960    -6.4040 hc         1 EZ5       0.043033
     72 H211       -21.9040   -16.6240    -5.5080 hc         1 EZ5       0.043033
     73 H221       -21.2690   -16.1790    -8.5870 ha         1 EZ5       0.168000
     74 H231       -21.0120   -18.4830    -9.2900 ha         1 EZ5       0.170000
     75 H232       -20.0080   -18.8530    -7.7780 ha         1 EZ5       0.170000
     76 H241       -17.0580   -18.2160    -6.4090 h1         1 EZ5       0.067700
     77 H261       -15.1920   -18.9360    -4.1270 h1         1 EZ5       0.067700
     78 H281       -16.9090   -20.7300    -5.8810 h1         1 EZ5       0.058700
     79 H322       -17.2060   -17.2340     1.5110 hc         1 EZ5       0.064700
     80 H321       -16.7250   -16.1720     0.1880 hc         1 EZ5       0.064700
     81 H331       -18.8160   -16.4890    -0.9590 h1         1 EZ5       0.033700
     82 H353       -21.2080   -17.9080    -0.8030 hc         1 EZ5       0.043033
     83 H352       -20.0730   -18.1440    -2.1410 hc         1 EZ5       0.043033
     84 H351       -20.7440   -19.5380    -1.2860 hc         1 EZ5       0.043033
     85 H361       -20.5740   -18.4930     1.5170 ha         1 EZ5       0.184000
     86 H391       -15.3220   -19.4880    -1.1760 hc         1 EZ5       0.072700
     87 H401       -14.9230   -19.4800     1.2740 hc         1 EZ5       0.037367
     88 H403       -13.5220   -18.8250     0.4210 hc         1 EZ5       0.037367
     89 H402       -14.6450   -17.7340     1.2400 hc         1 EZ5       0.037367
     90 H411       -14.6560   -16.5360    -1.0010 h1         1 EZ5       0.054200
     91 H412       -15.5920   -17.2100    -2.3270 h1         1 EZ5       0.054200
     92 H441       -11.1920   -17.0410    -4.2930 hc         1 EZ5       0.059033
     93 H443       -10.9460   -18.0730    -2.8690 hc         1 EZ5       0.059033
     94 H442       -11.9900   -18.6280    -4.1790 hc         1 EZ5       0.059033
     95 H421       -13.4180   -18.8790    -2.1960 hn         1 EZ5       0.310500
     96 H111       -17.0360   -23.4030    -1.2260 ho         1 EZ5       0.504000
     97 H251       -16.3600   -16.1950    -5.9760 ho         1 EZ5       0.507000
     98 H271       -14.2040   -20.0570    -5.9400 ho         1 EZ5       0.452000
     99 H291       -15.8680   -22.3470    -4.7170 ho         1 EZ5       0.513000
    100 H381       -19.4180   -15.3250     0.8490 ho         1 EZ5       0.444000
@<TRIPOS>BOND
     1     1    36 1   
     2     1    46 1   
     3     1    47 1   
     4     1    48 1   
     5     2     3 1   
     6     2    36 1   
     7     2    49 1   
     8     2    50 1   
     9     3     4 1   
    10     3    29 1   
    11     3    51 1   
    12     4     5 1   
    13     4    52 1   
    14     4    53 1   
    15     5     6 1   
    16     5    54 1   
    17     5    55 1   
    18     6     7 1   
    19     6    29 1   
    20     6    56 1   
    21     7     8 1   
    22     7     9 1   
    23     7    57 1   
    24     8    58 1   
    25     8    59 1   
    26     8    60 1   
    27     9    10 1   
    28     9    37 1   
    29     9    61 1   
    30    10    22 1   
    31    10    38 1   
    32    10    62 1   
    33    11    21 1   
    34    11    38 1   
    35    11    39 1   
    36    11    63 1   
    37    12    13 1   
    38    12    19 1   
    39    12    39 1   
    40    12    64 1   
    41    13    40 1   
    42    13    65 1   
    43    13    66 1   
    44    14    15 1   
    45    14    16 1   
    46    14    17 1   
    47    14    40 1   
    48    15    67 1   
    49    15    68 1   
    50    15    69 1   
    51    16    70 1   
    52    16    71 1   
    53    16    72 1   
    54    17    18 2   
    55    17    73 1   
    56    18    74 1   
    57    18    75 1   
    58    19    20 1   
    59    19    41 1   
    60    19    76 1   
    61    20    21 1   
    62    20    42 1   
    63    20    77 1   
    64    21    43 1   
    65    21    78 1   
    66    22    23 2   
    67    22    26 1   
    68    23    24 1   
    69    23    30 1   
    70    24    25 1   
    71    24    79 1   
    72    24    80 1   
    73    25    26 1   
    74    25    44 1   
    75    25    81 1   
    76    26    27 1   
    77    26    28 1   
    78    27    82 1   
    79    27    83 1   
    80    27    84 1   
    81    28    29 2   
    82    28    85 1   
    83    30    31 1   
    84    30    32 1   
    85    30    86 1   
    86    31    87 1   
    87    31    88 1   
    88    31    89 1   
    89    32    35 1   
    90    32    90 1   
    91    32    91 1   
    92    33    34 1   
    93    33    35 1   
    94    33    45 2   
    95    34    92 1   
    96    34    93 1   
    97    34    94 1   
    98    35    95 1   
    99    37    96 1   
   100    41    97 1   
   101    42    98 1   
   102    43    99 1   
   103    44   100 1   
@<TRIPOS>SUBSTRUCTURE
     1 EZ5         1 TEMP              0 ****  ****    0 ROOT
