@<TRIPOS>MOLECULE
EZ5
  100   103     1     0     0
SMALL
No Charge or Current Charge


@<TRIPOS>ATOM
      1 C01        -23.2400   -21.6650     4.6060 c3         1 EZ5       0.146900
      2 C03        -21.3720   -20.8710     3.2930 c3         1 EZ5       0.164600
      3 C04        -19.8240   -20.7610     3.3360 c5         1 EZ5      -0.032500
      4 C05        -19.1200   -22.1390     3.5130 c5         1 EZ5      -0.068400
      5 C06        -17.7150   -21.8520     2.9380 c5         1 EZ5      -0.079400
      6 C07        -18.0200   -21.0270     1.6500 c5         1 EZ5      -0.019500
      7 C08        -18.2600   -21.8850     0.3490 c3         1 EZ5      -0.074700
      8 C09        -19.7520   -22.2090     0.0390 c3         1 EZ5      -0.083100
      9 C10        -17.5040   -21.3110    -0.8920 c3         1 EZ5       0.161300
     10 C12        -18.0570   -19.9290    -1.3910 c3         1 EZ5       0.234500
     11 C14        -17.8880   -19.9840    -3.8390 c6         1 EZ5       0.361300
     12 C16        -17.7670   -17.7580    -4.8320 c6         1 EZ5       0.138300
     13 C17        -18.6980   -16.6620    -5.4340 c3         1 EZ5       0.168600
     14 C19        -20.1740   -16.2470    -7.4060 c3         1 EZ5       0.216200
     15 C20        -19.4300   -14.9440    -7.7950 c3         1 EZ5      -0.113100
     16 C21        -21.4140   -15.9640    -6.5210 c3         1 EZ5      -0.113100
     17 C22        -20.5870   -17.0220    -8.6490 c2         1 EZ5      -0.227200
     18 C23        -21.0270   -18.2940    -8.6780 c2         1 EZ5      -0.286000
     19 C24        -16.6170   -18.1900    -5.7970 c6         1 EZ5       0.151300
     20 C26        -15.8040   -19.3450    -5.1420 c6         1 EZ5       0.174300
     21 C28        -16.7440   -20.5230    -4.7560 c6         1 EZ5       0.117300
     22 C30        -17.8910   -18.8090    -0.3680 c2         1 EZ5      -0.133400
     23 C31        -16.7440   -18.2200     0.0220 c2         1 EZ5      -0.081400
     24 C32        -17.0170   -17.1680     1.0790 c5         1 EZ5      -0.084200
     25 C33        -18.5020   -16.8080     0.8250 c5         1 EZ5       0.168300
     26 C34        -19.0990   -18.1910     0.3420 c5         1 EZ5       0.039400
     27 C35        -20.2870   -17.9350    -0.6230 c3         1 EZ5      -0.082100
     28 C36        -19.6330   -18.9650     1.5710 c2         1 EZ5      -0.194200
     29 C37        -19.1980   -20.1430     2.0810 c2         1 EZ5      -0.105400
     30 C39        -15.3270   -18.4960    -0.4760 c3         1 EZ5      -0.037500
     31 C40        -14.3460   -18.7460     0.6940 c3         1 EZ5      -0.085100
     32 C41        -14.8620   -17.3620    -1.4170 c3         1 EZ5       0.113000
     33 C43        -12.8850   -16.7810    -2.8510 c          1 EZ5       0.596100
     34 C44        -11.6430   -17.3580    -3.5180 c3         1 EZ5      -0.173100
     35 N42        -13.6190   -17.6850    -2.1210 ns         1 EZ5      -0.510900
     36 O02        -21.8170   -21.4850     4.5160 os         1 EZ5      -0.465000
     37 O11        -17.4810   -22.2970    -1.9500 oh         1 EZ5      -0.731000
     38 O13        -17.3580   -19.5260    -2.5830 os         1 EZ5      -0.474000
     39 O15        -18.5950   -18.8990    -4.4720 os         1 EZ5      -0.470000
     40 O18        -19.2630   -17.1180    -6.6930 os         1 EZ5      -0.467000
     41 O25        -15.7350   -17.0940    -6.1140 oh         1 EZ5      -0.704000
     42 O27        -14.7670   -19.8090    -6.0270 oh         1 EZ5      -0.654000
     43 O29        -15.9900   -21.5810    -4.1120 oh         1 EZ5      -0.719000
     44 O38        -19.1400   -16.2250     1.9690 oh         1 EZ5      -0.655000
     45 O45        -13.2050   -15.6070    -2.9560 o          1 EZ5      -0.609100
     46 H011       -23.5060   -22.1360     5.5600 h1         1 EZ5       0.029033
     47 H013       -23.7610   -20.7000     4.5440 h1         1 EZ5       0.029033
     48 H012       -23.6030   -22.3090     3.7940 h1         1 EZ5       0.029033
     49 H031       -21.8130   -19.8720     3.1870 h1         1 EZ5       0.026200
     50 H032       -21.6690   -21.4740     2.4250 h1         1 EZ5       0.026200
     51 H041       -19.5860   -20.1180     4.1910 hc         1 EZ5       0.068700
     52 H051       -19.6230   -22.9410     2.9650 hc         1 EZ5       0.050200
     53 H052       -19.0820   -22.4520     4.5630 hc         1 EZ5       0.050200
     54 H062       -17.1420   -22.7660     2.7450 hc         1 EZ5       0.043700
     55 H061       -17.1260   -21.2560     3.6470 hc         1 EZ5       0.043700
     56 H071       -17.1300   -20.4170     1.4740 hc         1 EZ5       0.062700
     57 H081       -17.7870   -22.8580     0.5340 hc         1 EZ5       0.037700
     58 H091       -20.2160   -22.7730     0.8530 hc         1 EZ5       0.039367
     59 H092       -20.3400   -21.2970    -0.1140 hc         1 EZ5       0.039367
     60 H093       -19.8460   -22.8210    -0.8650 hc         1 EZ5       0.039367
     61 H101       -16.4690   -21.1520    -0.5690 h1         1 EZ5       0.042700
     62 H121       -19.1210   -20.0580    -1.6180 h1         1 EZ5       0.067700
     63 H141       -18.5970   -20.8080    -3.6660 h2         1 EZ5       0.081700
     64 H161       -17.3250   -17.3430    -3.9140 h1         1 EZ5       0.066700
     65 H171       -18.1030   -15.7510    -5.5740 h1         1 EZ5       0.036200
     66 H172       -19.4830   -16.4460    -4.6990 h1         1 EZ5       0.036200
     67 H202       -19.2090   -14.3260    -6.9180 hc         1 EZ5       0.043033
     68 H201       -18.4870   -15.1730    -8.3060 hc         1 EZ5       0.043033
     69 H203       -20.0450   -14.3390    -8.4710 hc         1 EZ5       0.043033
     70 H212       -21.1720   -15.2970    -5.6860 hc         1 EZ5       0.043033
     71 H213       -22.1980   -15.4790    -7.1130 hc         1 EZ5       0.043033
     72 H211       -21.8250   -16.8960    -6.1140 hc         1 EZ5       0.043033
     73 H221       -20.5110   -16.4570    -9.5800 ha         1 EZ5       0.168000
     74 H231       -21.3080   -18.7820    -9.6120 ha         1 EZ5       0.170000
     75 H232       -21.1150   -18.8890    -7.7680 ha         1 EZ5       0.170000
     76 H241       -17.0750   -18.5780    -6.7200 h1         1 EZ5       0.067700
     77 H261       -15.3520   -18.9590    -4.2160 h1         1 EZ5       0.067700
     78 H281       -17.2130   -20.9090    -5.6730 h1         1 EZ5       0.058700
     79 H322       -16.8500   -17.5770     2.0820 hc         1 EZ5       0.064700
     80 H321       -16.3730   -16.2890     0.9650 hc         1 EZ5       0.064700
     81 H331       -18.5390   -16.0950    -0.0120 h1         1 EZ5       0.033700
     82 H353       -21.0340   -17.2780    -0.1620 hc         1 EZ5       0.043033
     83 H352       -19.9510   -17.4540    -1.5500 hc         1 EZ5       0.043033
     84 H351       -20.8010   -18.8650    -0.8920 hc         1 EZ5       0.043033
     85 H361       -20.4670   -18.4900     2.0870 ha         1 EZ5       0.184000
     86 H391       -15.3230   -19.4070    -1.0810 hc         1 EZ5       0.072700
     87 H401       -14.7190   -19.5480     1.3410 hc         1 EZ5       0.037367
     88 H403       -13.3590   -19.0440     0.3210 hc         1 EZ5       0.037367
     89 H402       -14.2210   -17.8430     1.3030 hc         1 EZ5       0.037367
     90 H411       -14.7200   -16.4390    -0.8400 h1         1 EZ5       0.054200
     91 H412       -15.6410   -17.1760    -2.1680 h1         1 EZ5       0.054200
     92 H441       -11.0820   -16.6080    -4.0870 hc         1 EZ5       0.059033
     93 H443       -11.0190   -17.8390    -2.7560 hc         1 EZ5       0.059033
     94 H442       -11.9380   -18.2060    -4.1460 hc         1 EZ5       0.059033
     95 H421       -13.2720   -18.6360    -2.0870 hn         1 EZ5       0.310500
     96 H111       -17.5400   -23.1810    -1.5160 ho         1 EZ5       0.504000
     97 H251       -14.9300   -17.5180    -6.4940 ho         1 EZ5       0.507000
     98 H271       -14.5480   -20.7100    -5.6960 ho         1 EZ5       0.452000
     99 H291       -16.4980   -21.8120    -3.2790 ho         1 EZ5       0.513000
    100 H381       -18.6450   -15.4040     2.1810 ho         1 EZ5       0.444000
@<TRIPOS>BOND
     1     1    36 1   
     2     1    46 1   
     3     1    47 1   
     4     1    48 1   
     5     2     3 1   
     6     2    36 1   
     7     2    49 1   
     8     2    50 1   
     9     3     4 1   
    10     3    29 1   
    11     3    51 1   
    12     4     5 1   
    13     4    52 1   
    14     4    53 1   
    15     5     6 1   
    16     5    54 1   
    17     5    55 1   
    18     6     7 1   
    19     6    29 1   
    20     6    56 1   
    21     7     8 1   
    22     7     9 1   
    23     7    57 1   
    24     8    58 1   
    25     8    59 1   
    26     8    60 1   
    27     9    10 1   
    28     9    37 1   
    29     9    61 1   
    30    10    22 1   
    31    10    38 1   
    32    10    62 1   
    33    11    21 1   
    34    11    38 1   
    35    11    39 1   
    36    11    63 1   
    37    12    13 1   
    38    12    19 1   
    39    12    39 1   
    40    12    64 1   
    41    13    40 1   
    42    13    65 1   
    43    13    66 1   
    44    14    15 1   
    45    14    16 1   
    46    14    17 1   
    47    14    40 1   
    48    15    67 1   
    49    15    68 1   
    50    15    69 1   
    51    16    70 1   
    52    16    71 1   
    53    16    72 1   
    54    17    18 2   
    55    17    73 1   
    56    18    74 1   
    57    18    75 1   
    58    19    20 1   
    59    19    41 1   
    60    19    76 1   
    61    20    21 1   
    62    20    42 1   
    63    20    77 1   
    64    21    43 1   
    65    21    78 1   
    66    22    23 2   
    67    22    26 1   
    68    23    24 1   
    69    23    30 1   
    70    24    25 1   
    71    24    79 1   
    72    24    80 1   
    73    25    26 1   
    74    25    44 1   
    75    25    81 1   
    76    26    27 1   
    77    26    28 1   
    78    27    82 1   
    79    27    83 1   
    80    27    84 1   
    81    28    29 2   
    82    28    85 1   
    83    30    31 1   
    84    30    32 1   
    85    30    86 1   
    86    31    87 1   
    87    31    88 1   
    88    31    89 1   
    89    32    35 1   
    90    32    90 1   
    91    32    91 1   
    92    33    34 1   
    93    33    35 1   
    94    33    45 2   
    95    34    92 1   
    96    34    93 1   
    97    34    94 1   
    98    35    95 1   
    99    37    96 1   
   100    41    97 1   
   101    42    98 1   
   102    43    99 1   
   103    44   100 1   
@<TRIPOS>SUBSTRUCTURE
     1 EZ5         1 TEMP              0 ****  ****    0 ROOT
