@<TRIPOS>MOLECULE
EZ6
   53    58     1     0     0
SMALL
No Charge or Current Charge


@<TRIPOS>ATOM
      1 C01         19.5020    64.1510    46.4340 c3         1 EZ6       0.195100
      2 N02         19.9510    63.4090    45.2410 nu         1 EZ6      -0.947200
      3 C03         19.9570    62.0210    45.0590 ca         1 EZ6       0.313000
      4 C04         19.5090    61.1400    46.0640 ca         1 EZ6      -0.212000
      5 C05         19.5170    59.7450    45.8500 ca         1 EZ6       0.177000
      6 C06         19.9730    59.1930    44.6370 ca         1 EZ6      -0.139000
      7 C07         20.4330    60.0700    43.6340 cp         1 EZ6      -0.016000
      8 C08         20.4090    61.4430    43.8590 ca         1 EZ6      -0.071200
      9 N09         20.8950    62.0250    42.6700 na         1 EZ6      -0.329300
     10 C10         21.2230    61.0890    41.6890 ca         1 EZ6       0.416500
     11 C11         20.9540    59.8530    42.2830 cp         1 EZ6      -0.139000
     12 C12         21.2070    58.7070    41.5080 ca         1 EZ6       0.089800
     13 C13         21.6920    58.7930    40.1760 cp         1 EZ6      -0.055000
     14 C14         21.8980    60.1230    39.7030 ca         1 EZ6       0.390900
     15 N15         21.6810    61.2530    40.4350 nb         1 EZ6      -0.695000
     16 C16         21.9480    57.6100    39.2900 cp         1 EZ6      -0.217000
     17 C17         22.7130    56.4910    39.6990 ca         1 EZ6       0.135400
     18 N18         22.9250    55.4320    38.8960 nb         1 EZ6      -0.162500
     19 C19         22.3860    55.4890    37.6600 ca         1 EZ6       0.261300
     20 N20         21.6390    56.4990    37.1630 nb         1 EZ6      -0.162500
     21 C21         21.4340    57.5550    37.9730 ca         1 EZ6       0.135400
     22 C22         22.5630    54.2830    36.7870 cx         1 EZ6      -0.291300
     23 C23         21.3610    53.5630    36.1930 cx         1 EZ6      -0.110400
     24 C24         22.1680    52.8980    37.2770 cx         1 EZ6      -0.110400
     25 C25         23.8060    54.4070    35.9360 c          1 EZ6       0.760000
     26 O26         23.7030    54.9420    34.8430 o          1 EZ6      -0.717500
     27 O27         24.8580    53.9890    36.3940 o          1 EZ6      -0.717500
     28 N28         20.9220    57.4540    42.0510 na         1 EZ6       0.234000
     29 C29         21.7590    56.8050    42.9450 cc         1 EZ6      -0.164000
     30 C30         21.0900    55.6320    43.1550 cd         1 EZ6      -0.177000
     31 C31         19.8990    55.6600    42.3790 cd         1 EZ6       0.132300
     32 N32         19.7760    56.7850    41.6900 nc         1 EZ6      -0.435800
     33 C33         18.8500    54.5610    42.2930 c3         1 EZ6       0.294700
     34 F34         19.1240    53.5280    43.1230 f          1 EZ6      -0.106333
     35 F35         18.7620    54.0470    41.0440 f          1 EZ6      -0.106333
     36 F36         17.6170    55.0120    42.6250 f          1 EZ6      -0.106333
     37 F37         19.0740    58.9230    46.8250 f          1 EZ6      -0.185000
     38 H1          19.6180    65.2320    46.2790 h1         1 EZ6       0.036700
     39 H2          18.4440    63.9420    46.6420 h1         1 EZ6       0.036700
     40 H3          20.0950    63.8620    47.3130 h1         1 EZ6       0.036700
     41 H4          20.2980    63.9650    44.4590 hn         1 EZ6       0.463000
     42 H5          19.1480    61.5240    47.0120 ha         1 EZ6       0.129000
     43 H6          19.9560    58.1190    44.4940 ha         1 EZ6       0.147000
     44 H7          20.9970    63.0180    42.5150 hn         1 EZ6       0.362000
     45 H8          22.2640    60.2820    38.6890 h4         1 EZ6       0.043100
     46 H9          23.1730    56.4480    40.6840 h4         1 EZ6       0.004100
     47 H10         20.8330    58.3680    37.5690 h4         1 EZ6       0.004100
     48 H11         20.3670    53.9200    36.4540 hc         1 EZ6       0.063700
     49 H12         21.4470    53.1650    35.1840 hc         1 EZ6       0.063700
     50 H13         21.7130    52.8110    38.2610 hc         1 EZ6       0.063700
     51 H14         22.7950    52.0550    36.9930 hc         1 EZ6       0.063700
     52 H16         22.6920    57.2090    43.3160 h4         1 EZ6       0.164000
     53 H17         21.4140    54.8210    43.8010 ha         1 EZ6       0.158000
@<TRIPOS>BOND
     1     1     2 1   
     2     1    38 1   
     3     1    39 1   
     4     1    40 1   
     5     2     3 1   
     6     2    41 1   
     7     3     4 ar  
     8     3     8 ar  
     9     4     5 ar  
    10     4    42 1   
    11     5     6 ar  
    12     5    37 1   
    13     6     7 ar  
    14     6    43 1   
    15     7     8 ar  
    16     7    11 1   
    17     8     9 1   
    18     9    10 1   
    19     9    44 1   
    20    10    11 ar  
    21    10    15 ar  
    22    11    12 ar  
    23    12    13 ar  
    24    12    28 1   
    25    13    14 ar  
    26    13    16 1   
    27    14    15 ar  
    28    14    45 1   
    29    16    17 ar  
    30    16    21 ar  
    31    17    18 ar  
    32    17    46 1   
    33    18    19 ar  
    34    19    20 ar  
    35    19    22 1   
    36    20    21 ar  
    37    21    47 1   
    38    22    23 1   
    39    22    24 1   
    40    22    25 1   
    41    23    24 1   
    42    23    48 1   
    43    23    49 1   
    44    24    50 1   
    45    24    51 1   
    46    25    26 1   
    47    25    27 1   
    48    28    29 1   
    49    28    32 1   
    50    29    30 2   
    51    29    52 1   
    52    30    31 1   
    53    30    53 1   
    54    31    32 2   
    55    31    33 1   
    56    33    34 1   
    57    33    35 1   
    58    33    36 1   
@<TRIPOS>SUBSTRUCTURE
     1 EZ6         1 TEMP              0 ****  ****    0 ROOT
