@<TRIPOS>MOLECULE
EZ6
   53    58     1     0     0
SMALL
abcg2


@<TRIPOS>ATOM
      1 C01         19.8040    64.1540    46.3390 c3         1 EZ6       0.195100
      2 N02         20.0880    63.4940    45.0890 nu         1 EZ6      -0.947200
      3 C03         20.0020    62.1310    44.9830 ca         1 EZ6       0.313000
      4 C04         19.4940    61.3200    45.9930 ca         1 EZ6      -0.212000
      5 C05         19.4000    59.9410    45.8130 ca         1 EZ6       0.177000
      6 C06         19.8020    59.2790    44.6830 ca         1 EZ6      -0.139000
      7 C07         20.3200    60.0800    43.6550 cp         1 EZ6      -0.016000
      8 C08         20.3920    61.4730    43.8000 ca         1 EZ6      -0.071200
      9 N09         20.8920    62.0320    42.6420 na         1 EZ6      -0.329300
     10 C10         21.1410    61.0470    41.7450 ca         1 EZ6       0.416500
     11 C11         20.8240    59.7990    42.3360 cp         1 EZ6      -0.139000
     12 C12         21.0430    58.6790    41.5500 ca         1 EZ6       0.089800
     13 C13         21.5300    58.8380    40.2530 cp         1 EZ6      -0.055000
     14 C14         21.7620    60.1410    39.7970 ca         1 EZ6       0.390900
     15 N15         21.5840    61.2360    40.5160 nb         1 EZ6      -0.695000
     16 C16         21.8130    57.6840    39.3850 cp         1 EZ6      -0.217000
     17 C17         22.7380    56.7040    39.7240 ca         1 EZ6       0.135400
     18 N18         22.9530    55.6370    38.9740 nb         1 EZ6      -0.162500
     19 C19         22.2540    55.5230    37.8470 ca         1 EZ6       0.261300
     20 N20         21.3710    56.4200    37.4190 nb         1 EZ6      -0.162500
     21 C21         21.1570    57.4810    38.1790 ca         1 EZ6       0.135400
     22 C22         22.4970    54.3240    37.0070 cx         1 EZ6      -0.291300
     23 C23         21.3180    53.4820    36.6140 cx         1 EZ6      -0.110400
     24 C24         22.2870    52.9750    37.6290 cx         1 EZ6      -0.110400
     25 C25         23.6290    54.5000    35.9880 c          1 EZ6       0.760000
     26 O26         24.1510    55.6310    35.9540 o          1 EZ6      -0.717500
     27 O27         23.9150    53.5100    35.2920 o          1 EZ6      -0.717500
     28 N28         20.7930    57.3800    42.0460 na         1 EZ6       0.234000
     29 C29         21.4030    56.7770    43.0940 cc         1 EZ6      -0.164000
     30 C30         20.9620    55.4800    43.1100 cd         1 EZ6      -0.177000
     31 C31         20.0890    55.4100    42.0130 cd         1 EZ6       0.132300
     32 N32         19.9950    56.5570    41.3770 nc         1 EZ6      -0.435800
     33 C33         19.3150    54.2400    41.5190 c3         1 EZ6       0.294700
     34 F34         19.6490    53.1300    42.1810 f          1 EZ6      -0.106333
     35 F35         19.5320    54.0180    40.2170 f          1 EZ6      -0.106333
     36 F36         17.9960    54.4120    41.6640 f          1 EZ6      -0.106333
     37 F37         18.8890    59.2310    46.8370 f          1 EZ6      -0.185000
     38 H1          19.9800    65.2190    46.2140 h1         1 EZ6       0.036700
     39 H2          18.7580    64.0210    46.6180 h1         1 EZ6       0.036700
     40 H3          20.4240    63.7990    47.1690 h1         1 EZ6       0.036700
     41 H4          20.8240    63.9260    44.5550 hn         1 EZ6       0.463000
     42 H5          19.1700    61.7430    46.9340 ha         1 EZ6       0.129000
     43 H6          19.7040    58.2060    44.5990 ha         1 EZ6       0.147000
     44 H7          20.9620    63.0150    42.4280 hn         1 EZ6       0.362000
     45 H8          22.1390    60.2820    38.7890 h4         1 EZ6       0.043100
     46 H9          23.3260    56.7880    40.6330 h4         1 EZ6       0.004100
     47 H10         20.4200    58.1980    37.8280 h4         1 EZ6       0.004100
     48 H11         20.3390    53.7940    36.9570 hc         1 EZ6       0.063700
     49 H12         21.3290    53.0440    35.6240 hc         1 EZ6       0.063700
     50 H13         21.9640    52.9450    38.6620 hc         1 EZ6       0.063700
     51 H14         22.9690    52.1840    37.3460 hc         1 EZ6       0.063700
     52 H16         22.1030    57.3010    43.7240 h4         1 EZ6       0.164000
     53 H17         21.2370    54.7050    43.8050 ha         1 EZ6       0.158000
@<TRIPOS>BOND
     1     1     2 1   
     2     1    38 1   
     3     1    39 1   
     4     1    40 1   
     5     2     3 1   
     6     2    41 1   
     7     3     4 ar  
     8     3     8 ar  
     9     4     5 ar  
    10     4    42 1   
    11     5     6 ar  
    12     5    37 1   
    13     6     7 ar  
    14     6    43 1   
    15     7     8 ar  
    16     7    11 1   
    17     8     9 1   
    18     9    10 1   
    19     9    44 1   
    20    10    11 ar  
    21    10    15 ar  
    22    11    12 ar  
    23    12    13 ar  
    24    12    28 1   
    25    13    14 ar  
    26    13    16 1   
    27    14    15 ar  
    28    14    45 1   
    29    16    17 ar  
    30    16    21 ar  
    31    17    18 ar  
    32    17    46 1   
    33    18    19 ar  
    34    19    20 ar  
    35    19    22 1   
    36    20    21 ar  
    37    21    47 1   
    38    22    23 1   
    39    22    24 1   
    40    22    25 1   
    41    23    24 1   
    42    23    48 1   
    43    23    49 1   
    44    24    50 1   
    45    24    51 1   
    46    25    26 1   
    47    25    27 1   
    48    28    29 1   
    49    28    32 1   
    50    29    30 2   
    51    29    52 1   
    52    30    31 1   
    53    30    53 1   
    54    31    32 2   
    55    31    33 1   
    56    33    34 1   
    57    33    35 1   
    58    33    36 1   
@<TRIPOS>SUBSTRUCTURE
     1 EZ6         1 TEMP              0 ****  ****    0 ROOT
