@<TRIPOS>MOLECULE
EZ7
   67    72     1     0     0
SMALL
No Charge or Current Charge


@<TRIPOS>ATOM
      1 C2          -7.5580    -1.2340     1.9020 ca         1 EZ7      -0.146000
      2 C3          -8.2560    -0.2400     1.1670 ca         1 EZ7      -0.032000
      3 C4          -7.5800     0.4790     0.1430 ca         1 EZ7      -0.072000
      4 C11         -6.2330     0.1860    -0.1130 ca         1 EZ7       0.081400
      5 C12         -5.5910    -0.7800     0.6170 ca         1 EZ7       0.004100
      6 C16         -2.8240     1.2080    -2.5730 ca         1 EZ7      -0.106000
      7 C18         -1.8300    -0.5230    -1.2240 ca         1 EZ7      -0.086000
      8 C19         -0.6100    -0.3290    -1.9120 ca         1 EZ7       0.289500
      9 C60        -11.9400     0.7370     1.6880 c3         1 EZ7      -0.181100
     10 O59        -10.3870     1.6500     0.0970 o          1 EZ7      -0.576100
     11 N7          -9.6200    -0.0200     1.5060 ns         1 EZ7      -0.148000
     12 C1          -6.2030    -1.5180     1.6320 ca         1 EZ7      -0.061000
     13 O13         -4.3310    -0.8520     0.1670 os         1 EZ7      -0.267700
     14 N10         -5.3880     0.7670    -1.0640 nc         1 EZ7      -0.560100
     15 C9          -4.2480     0.0830    -0.8320 cd         1 EZ7       0.582200
     16 C17         -2.9640     0.2560    -1.5420 ca         1 EZ7      -0.084900
     17 C15         -1.5930     1.3360    -3.2310 ca         1 EZ7       0.324900
     18 N14         -0.5110     0.5880    -2.9220 nb         1 EZ7      -0.639000
     19 O24          0.4020    -2.3610    -1.0980 o          1 EZ7      -0.598100
     20 N27          1.9070    -0.8050    -1.8490 n          1 EZ7      -0.384800
     21 C28          2.3380     0.6190    -1.7130 c6         1 EZ7       0.098500
     22 C29          3.2450     0.8390    -0.4700 c6         1 EZ7       0.137800
     23 C26          3.0650    -1.7420    -1.7870 c6         1 EZ7       0.098500
     24 C25          3.9430    -1.5070    -0.5300 c6         1 EZ7       0.137800
     25 N30          4.4150    -0.0920    -0.4410 n3         1 EZ7      -0.703600
     26 C40          5.3360     0.1520     0.7260 c3         1 EZ7       0.222500
     27 C52          6.5130    -0.8260     0.8590 cc         1 EZ7       0.493300
     28 N56          6.6890    -1.6040     1.9060 nd         1 EZ7      -0.530800
     29 N53          7.4580    -0.9440    -0.1240 nc         1 EZ7      -0.359000
     30 N54          8.3000    -1.8450     0.2940 nd         1 EZ7      -0.183800
     31 N55          7.8290    -2.2380     1.5180 na         1 EZ7       0.245600
     32 C57          8.4960    -3.2540     2.3400 c3         1 EZ7       0.075900
     33 C44          5.8370     1.6010     0.7770 ca         1 EZ7      -0.100300
     34 C43          5.7290     2.3470     1.9690 ca         1 EZ7      -0.085500
     35 C42          6.1900     3.6750     2.0210 ca         1 EZ7      -0.118500
     36 C41          6.7630     4.2670     0.8830 ca         1 EZ7      -0.102000
     37 C46          6.8750     3.5310    -0.3080 ca         1 EZ7      -0.118500
     38 C45          6.4150     2.2040    -0.3610 ca         1 EZ7      -0.085500
     39 H1          -8.0680    -1.7880     2.6860 ha         1 EZ7       0.115000
     40 H2          -8.0670     1.2480    -0.4470 ha         1 EZ7       0.170000
     41 H3          -3.6550     1.8410    -2.8720 ha         1 EZ7       0.151000
     42 H4          -1.8830    -1.2770    -0.4420 ha         1 EZ7       0.153000
     43 H5         -12.2840    -0.3020     1.6290 hc         1 EZ7       0.064700
     44 H6         -11.8100     0.8770     2.7670 hc         1 EZ7       0.064700
     45 H7         -12.6800     1.4320     1.2760 hc         1 EZ7       0.064700
     46 H8          -9.9540    -0.6110     2.2570 hn         1 EZ7       0.150000
     47 H9          -5.6560    -2.2760     2.1880 ha         1 EZ7       0.137000
     48 H10         -1.4680     2.0600    -4.0360 h4         1 EZ7       0.029100
     49 H11          2.8880     0.9130    -2.6170 h1         1 EZ7       0.069700
     50 H12          1.4800     1.2940    -1.6180 h1         1 EZ7       0.069700
     51 H13          3.5770     1.8870    -0.4760 h1         1 EZ7       0.045450
     52 H14          2.6350     0.7040     0.4360 h1         1 EZ7       0.045450
     53 H15          2.7250    -2.7870    -1.8060 h1         1 EZ7       0.069700
     54 H16          3.6840    -1.5940    -2.6830 h1         1 EZ7       0.069700
     55 H17          3.3590    -1.7720     0.3640 h1         1 EZ7       0.045450
     56 H18          4.7940    -2.2020    -0.5770 h1         1 EZ7       0.045450
     57 H20          4.7360     0.0020     1.6340 h1         1 EZ7       0.049700
     58 H21          7.8090    -4.0900     2.5140 h1         1 EZ7       0.071367
     59 H22          9.3920    -3.6210     1.8260 h1         1 EZ7       0.071367
     60 H23          8.7840    -2.8130     3.3010 h1         1 EZ7       0.071367
     61 H24          5.2890     1.9000     2.8580 ha         1 EZ7       0.125000
     62 H25          6.1040     4.2440     2.9440 ha         1 EZ7       0.113500
     63 H26          7.1190     5.2940     0.9240 ha         1 EZ7       0.112000
     64 H27          7.3180     3.9880    -1.1900 ha         1 EZ7       0.113500
     65 H28          6.5030     1.6410    -1.2880 ha         1 EZ7       0.125000
     66 C23          0.5840    -1.2380    -1.5630 c          1 EZ7       0.516600
     67 C58        -10.5800     0.8500     1.0050 c          1 EZ7       0.608100
@<TRIPOS>BOND
     1     1     2 ar  
     2     1    12 ar  
     3     1    39 1   
     4     2     3 ar  
     5     2    11 1   
     6     3     4 ar  
     7     3    40 1   
     8     4     5 ar  
     9     4    14 1   
    10     5    12 ar  
    11     5    13 1   
    12     6    16 ar  
    13     6    17 ar  
    14     6    41 1   
    15     7     8 ar  
    16     7    16 ar  
    17     7    42 1   
    18     8    18 ar  
    19     8    66 1   
    20     9    43 1   
    21     9    44 1   
    22     9    45 1   
    23     9    67 1   
    24    10    67 2   
    25    11    46 1   
    26    11    67 1   
    27    12    47 1   
    28    13    15 1   
    29    14    15 2   
    30    15    16 1   
    31    17    18 ar  
    32    17    48 1   
    33    19    66 2   
    34    20    21 1   
    35    20    23 1   
    36    20    66 1   
    37    21    22 1   
    38    21    49 1   
    39    21    50 1   
    40    22    25 1   
    41    22    51 1   
    42    22    52 1   
    43    23    24 1   
    44    23    53 1   
    45    23    54 1   
    46    24    25 1   
    47    24    55 1   
    48    24    56 1   
    49    25    26 1   
    50    26    27 1   
    51    26    33 1   
    52    26    57 1   
    53    27    28 2   
    54    27    29 1   
    55    28    31 1   
    56    29    30 2   
    57    30    31 1   
    58    31    32 1   
    59    32    58 1   
    60    32    59 1   
    61    32    60 1   
    62    33    34 ar  
    63    33    38 ar  
    64    34    35 ar  
    65    34    61 1   
    66    35    36 ar  
    67    35    62 1   
    68    36    37 ar  
    69    36    63 1   
    70    37    38 ar  
    71    37    64 1   
    72    38    65 1   
@<TRIPOS>SUBSTRUCTURE
     1 EZ7         1 TEMP              0 ****  ****    0 ROOT
