@<TRIPOS>MOLECULE
EZ7
   67    72     1     0     0
SMALL
bcc


@<TRIPOS>ATOM
      1 C2          -7.0380    -1.0690     2.0030 ca         1 EZ7      -0.164000
      2 C3          -7.7600    -0.0970     1.2770 ca         1 EZ7       0.060600
      3 C4          -7.1760     0.5550     0.1950 ca         1 EZ7      -0.090000
      4 C11         -5.8690     0.1990    -0.1190 ca         1 EZ7       0.081400
      5 C12         -5.1850    -0.7620     0.6120 ca         1 EZ7       0.004100
      6 C16         -2.6710     1.0110    -2.8060 ca         1 EZ7      -0.189300
      7 C18         -1.6130    -0.6880    -1.4990 ca         1 EZ7      -0.169300
      8 C19         -0.4870    -0.5120    -2.2910 ca         1 EZ7       0.354800
      9 C60        -11.3270     0.9360     1.9390 c3         1 EZ7      -0.181100
     10 O59         -9.8550     1.6240     0.1900 o          1 EZ7      -0.576100
     11 N7          -9.0600     0.1490     1.7270 ns         1 EZ7      -0.474100
     12 C1          -5.7390    -1.4220     1.6890 ca         1 EZ7      -0.079000
     13 O13         -3.9500    -0.8830     0.0670 os         1 EZ7      -0.267700
     14 N10         -5.0320     0.6590    -1.1150 nc         1 EZ7      -0.560100
     15 C9          -3.9400    -0.0030    -0.9540 cd         1 EZ7       0.582200
     16 C17         -2.7270     0.1040    -1.7520 ca         1 EZ7      -0.084900
     17 C15         -1.5040     1.0910    -3.5450 ca         1 EZ7       0.390200
     18 N14         -0.4270     0.3560    -3.2920 nb         1 EZ7      -0.639000
     19 O24          0.4600    -2.6300    -1.9840 o          1 EZ7      -0.598100
     20 N27          1.9170    -0.8950    -2.0380 n          1 EZ7      -0.451800
     21 C28          2.2320     0.5060    -1.8280 c6         1 EZ7       0.098500
     22 C29          2.9430     0.6940    -0.4990 c6         1 EZ7       0.137800
     23 C26          3.0880    -1.7450    -1.9170 c6         1 EZ7       0.098500
     24 C25          3.7790    -1.5300    -0.5830 c6         1 EZ7       0.137800
     25 N30          4.1390    -0.1300    -0.4190 n3         1 EZ7      -0.703600
     26 C40          4.8750     0.1220     0.8090 c3         1 EZ7       0.222500
     27 C52          6.0860    -0.7550     0.8980 cc         1 EZ7       0.493300
     28 N56          6.3660    -1.5080     1.9420 nd         1 EZ7      -0.530800
     29 N53          7.0430    -0.8430    -0.0370 nc         1 EZ7      -0.359000
     30 N54          7.9300    -1.6610     0.4290 nd         1 EZ7      -0.183800
     31 N55          7.5130    -2.0390     1.6000 na         1 EZ7       0.274900
     32 C57          8.2420    -2.9610     2.4410 c3         1 EZ7       0.046600
     33 C44          5.3340     1.5640     0.9080 ca         1 EZ7      -0.100300
     34 C43          5.2410     2.2410     2.1170 ca         1 EZ7      -0.103500
     35 C42          5.7030     3.5470     2.2320 ca         1 EZ7      -0.136500
     36 C41          6.2580     4.1870     1.1330 ca         1 EZ7      -0.120000
     37 C46          6.3490     3.5140    -0.0800 ca         1 EZ7      -0.136500
     38 C45          5.8940     2.2100    -0.1920 ca         1 EZ7      -0.103500
     39 H1          -7.5190    -1.5610     2.8400 ha         1 EZ7       0.133000
     40 H2          -7.6960     1.3030    -0.3810 ha         1 EZ7       0.188000
     41 H3          -3.5140     1.6420    -3.0470 ha         1 EZ7       0.169000
     42 H4          -1.6050    -1.4210    -0.7040 ha         1 EZ7       0.171000
     43 H5         -12.0780     0.4340     1.3270 hc         1 EZ7       0.064700
     44 H6         -11.2800     0.4290     2.9010 hc         1 EZ7       0.064700
     45 H7         -11.6660     1.9580     2.0990 hc         1 EZ7       0.064700
     46 H8          -9.3230    -0.3600     2.5560 hn         1 EZ7       0.316500
     47 H9          -5.2050    -2.1700     2.2590 ha         1 EZ7       0.155000
     48 H10         -1.4340     1.7830    -4.3750 h4         1 EZ7       0.029100
     49 H11          2.8730     0.8550    -2.6420 h1         1 EZ7       0.069700
     50 H12          1.3370     1.1180    -1.8340 h1         1 EZ7       0.069700
     51 H13          3.2120     1.7470    -0.4130 h1         1 EZ7       0.045450
     52 H14          2.2400     0.4710     0.3220 h1         1 EZ7       0.045450
     53 H15          2.8030    -2.7880    -2.0240 h1         1 EZ7       0.069700
     54 H16          3.7790    -1.5000    -2.7290 h1         1 EZ7       0.069700
     55 H17          3.1260    -1.8850     0.2300 h1         1 EZ7       0.045450
     56 H18          4.6740    -2.1520    -0.5730 h1         1 EZ7       0.045450
     57 H20          4.2620    -0.1030     1.6980 h1         1 EZ7       0.049700
     58 H21          7.6450    -3.8530     2.6110 h1         1 EZ7       0.071367
     59 H22          9.1620    -3.2260     1.9320 h1         1 EZ7       0.071367
     60 H23          8.4710    -2.4850     3.3900 h1         1 EZ7       0.071367
     61 H24          4.8040     1.7480     2.9770 ha         1 EZ7       0.143000
     62 H25          5.6250     4.0640     3.1800 ha         1 EZ7       0.131500
     63 H26          6.6150     5.2050     1.2210 ha         1 EZ7       0.130000
     64 H27          6.7780     4.0090    -0.9430 ha         1 EZ7       0.131500
     65 H28          5.9610     1.6910    -1.1400 ha         1 EZ7       0.143000
     66 C23          0.6860    -1.4300    -2.0780 c          1 EZ7       0.583600
     67 C58        -10.0170     0.9530     1.1940 c          1 EZ7       0.675100
@<TRIPOS>BOND
     1     1     2 ar  
     2     1    12 ar  
     3     1    39 1   
     4     2     3 ar  
     5     2    11 1   
     6     3     4 ar  
     7     3    40 1   
     8     4     5 ar  
     9     4    14 1   
    10     5    12 ar  
    11     5    13 1   
    12     6    16 ar  
    13     6    17 ar  
    14     6    41 1   
    15     7     8 ar  
    16     7    16 ar  
    17     7    42 1   
    18     8    18 ar  
    19     8    66 1   
    20     9    43 1   
    21     9    44 1   
    22     9    45 1   
    23     9    67 1   
    24    10    67 2   
    25    11    46 1   
    26    11    67 1   
    27    12    47 1   
    28    13    15 1   
    29    14    15 2   
    30    15    16 1   
    31    17    18 ar  
    32    17    48 1   
    33    19    66 2   
    34    20    21 1   
    35    20    23 1   
    36    20    66 1   
    37    21    22 1   
    38    21    49 1   
    39    21    50 1   
    40    22    25 1   
    41    22    51 1   
    42    22    52 1   
    43    23    24 1   
    44    23    53 1   
    45    23    54 1   
    46    24    25 1   
    47    24    55 1   
    48    24    56 1   
    49    25    26 1   
    50    26    27 1   
    51    26    33 1   
    52    26    57 1   
    53    27    28 2   
    54    27    29 1   
    55    28    31 1   
    56    29    30 2   
    57    30    31 1   
    58    31    32 1   
    59    32    58 1   
    60    32    59 1   
    61    32    60 1   
    62    33    34 ar  
    63    33    38 ar  
    64    34    35 ar  
    65    34    61 1   
    66    35    36 ar  
    67    35    62 1   
    68    36    37 ar  
    69    36    63 1   
    70    37    38 ar  
    71    37    64 1   
    72    38    65 1   
@<TRIPOS>SUBSTRUCTURE
     1 EZ7         1 TEMP              0 ****  ****    0 ROOT
