@<TRIPOS>MOLECULE
EZ8
  100   104     1     0     0
SMALL
No Charge or Current Charge


@<TRIPOS>ATOM
      1 C4           2.4260    -4.0150     0.8000 c6         1 EZ8       0.106300
      2 C5           1.8000    -2.7800     1.5220 c6         1 EZ8       0.125300
      3 C6           2.2180    -2.6880     3.0270 c3         1 EZ8       0.176600
      4 N2           3.8770    -2.4220    -1.6050 na         1 EZ8       0.160800
      5 C3           2.0510    -3.9660    -0.7100 c6         1 EZ8       0.166300
      6 CAP          3.6880     4.6380    -0.3760 ca         1 EZ8      -0.097000
      7 CAL          4.9320     4.0470    -0.6600 ca         1 EZ8      -0.090500
      8 CBM          5.4140     2.9860     0.1320 ca         1 EZ8      -0.108300
      9 CAV          6.7550     2.3380    -0.1840 c3         1 EZ8       0.219900
     10 OAE          7.8090     3.0200     0.4990 oh         1 EZ8      -0.633000
     11 CAM          4.6390     2.5290     1.2150 ca         1 EZ8      -0.090500
     12 CAQ          3.3970     3.1220     1.5000 ca         1 EZ8      -0.097000
     13 CBO          2.9130     4.1800     0.7060 ca         1 EZ8      -0.102300
     14 CAZ          1.5460     4.7910     0.9880 c3         1 EZ8       0.141300
     15 NBF          0.5110     4.0860     0.2310 ns         1 EZ8      -0.505900
     16 CBK         -0.0610     2.9010     0.6330 c          1 EZ8       0.595100
     17 OAC          0.1070     2.4500     1.7560 o          1 EZ8      -0.595100
     18 CBW         -0.9050     2.1610    -0.4310 c6         1 EZ8      -0.122700
     19 CBB         -0.1760     0.9180    -1.0060 c6         1 EZ8      -0.101400
     20 CBV         -2.3770     1.8580    -0.0130 c6         1 EZ8      -0.129700
     21 CBJ         -3.3870     1.8900    -1.1850 c          1 EZ8       0.597100
     22 OAB         -3.3450     1.0810    -2.0990 o          1 EZ8      -0.609100
     23 NBE         -4.3390     2.8850    -1.1330 ns         1 EZ8      -0.499900
     24 CAY         -5.4200     3.0520    -2.1060 c3         1 EZ8       0.143300
     25 CBN         -6.6910     2.3610    -1.6350 ca         1 EZ8      -0.114300
     26 CAN         -7.6580     3.0720    -0.8990 ca         1 EZ8      -0.101500
     27 CAJ         -8.8280     2.4290    -0.4590 ca         1 EZ8      -0.096500
     28 CBL         -9.0460     1.0680    -0.7490 ca         1 EZ8      -0.078300
     29 CAU        -10.3120     0.3700    -0.2660 c3         1 EZ8       0.209900
     30 OAD        -11.3500     0.4870    -1.2450 oh         1 EZ8      -0.652000
     31 CAK         -8.0770     0.3570    -1.4840 ca         1 EZ8      -0.096500
     32 CAO         -6.9070     1.0000    -1.9240 ca         1 EZ8      -0.101500
     33 CBA         -2.5080     0.5930     0.8850 c6         1 EZ8      -0.102400
     34 CBT         -1.7690    -0.6400     0.2760 c6         1 EZ8       0.180300
     35 OBG         -1.8240    -1.7690     1.1820 os         1 EZ8      -0.457000
     36 CAX         -3.1100    -2.3670     1.4410 c3         1 EZ8       0.157600
     37 CAT         -2.8920    -3.6400     2.2840 c3         1 EZ8       0.119600
     38 Cl1         -2.1510    -3.2780     3.9110 cl         1 EZ8      -0.272000
     39 CBU         -0.2760    -0.2950    -0.0390 c6         1 EZ8       0.171300
     40 O1           0.3950    -1.4430    -0.6140 os         1 EZ8      -0.478000
     41 C1           1.8350    -1.4340    -0.5300 c6         1 EZ8       0.387300
     42 O5           2.2260    -1.5570     0.8570 os         1 EZ8      -0.475000
     43 O6           1.7290    -1.5060     3.6850 oh         1 EZ8      -0.691000
     44 O4           1.9760    -5.2640     1.3670 oh         1 EZ8      -0.713000
     45 O3           2.6540    -5.0760    -1.3980 oh         1 EZ8      -0.658000
     46 C2           2.4220    -2.6000    -1.3630 c6         1 EZ8       0.055300
     47 CAR          4.8430    -2.0970    -0.6760 cc         1 EZ8      -0.126000
     48 NBD          4.4230    -2.5200    -2.8540 nc         1 EZ8      -0.126800
     49 NBC          5.7010    -2.2800    -2.7360 nd         1 EZ8      -0.353000
     50 CBP          5.9870    -2.0150    -1.4160 cd         1 EZ8       0.063300
     51 CAS          7.3820    -1.6950    -0.9440 c3         1 EZ8       0.116300
     52 NAA          8.4560    -2.5850    -1.5220 nz         1 EZ8      -0.975000
     53 H1           3.5200    -3.9520     0.8900 h1         1 EZ8       0.023700
     54 H2           0.7020    -2.8500     1.4860 h1         1 EZ8       0.119700
     55 H3           1.8420    -3.5790     3.5460 h1         1 EZ8       0.015200
     56 H4           3.3150    -2.7150     3.0810 h1         1 EZ8       0.015200
     57 H5           0.9540    -4.0590    -0.7670 h1         1 EZ8       0.094700
     58 H7           5.5200     4.4100    -1.5000 ha         1 EZ8       0.116000
     59 H8           6.7310     1.2830     0.1190 h1         1 EZ8      -0.002300
     60 H9           6.9270     2.3670    -1.2680 h1         1 EZ8      -0.002300
     61 H10          8.6450     2.5760     0.2400 ho         1 EZ8       0.434000
     62 H11          4.9980     1.7100     1.8350 ha         1 EZ8       0.116000
     63 H12          2.8060     2.7510     2.3350 ha         1 EZ8       0.128000
     64 H13          1.3220     4.7400     2.0620 h1         1 EZ8       0.074700
     65 H14          1.5430     5.8500     0.6970 h1         1 EZ8       0.074700
     66 H15          0.3190     4.3930    -0.7150 hn         1 EZ8       0.312500
     67 H16         -0.9610     2.8690    -1.2710 hc         1 EZ8       0.088700
     68 H17         -0.6170     0.6420    -1.9740 hc         1 EZ8       0.064200
     69 H18          0.8720     1.1750    -1.2070 hc         1 EZ8       0.064200
     70 H19         -2.6820     2.6990     0.6270 hc         1 EZ8       0.089700
     71 H20         -4.3110     3.5100    -0.3380 hn         1 EZ8       0.315500
     72 H21         -5.6090     4.1250    -2.2410 h1         1 EZ8       0.071700
     73 H22         -5.1130     2.6490    -3.0800 h1         1 EZ8       0.071700
     74 H23         -7.5030     4.1230    -0.6650 ha         1 EZ8       0.113500
     75 H24         -9.5690     2.9900     0.1070 ha         1 EZ8       0.118000
     76 H25        -10.0900    -0.6880    -0.0710 h1         1 EZ8       0.025200
     77 H26        -10.6320     0.8190     0.6840 h1         1 EZ8       0.025200
     78 H27        -12.1350     0.0220    -0.8800 ho         1 EZ8       0.448000
     79 H28         -8.2320    -0.6940    -1.7150 ha         1 EZ8       0.118000
     80 H29         -6.1660     0.4380    -2.4890 ha         1 EZ8       0.113500
     81 H30         -2.0900     0.8000     1.8800 hc         1 EZ8       0.074200
     82 H31         -3.5720     0.3690     1.0390 hc         1 EZ8       0.074200
     83 H32         -2.2600    -0.9280    -0.6640 h1         1 EZ8       0.052700
     84 H33         -3.7660    -1.6810     1.9910 h1         1 EZ8       0.039700
     85 H34         -3.6060    -2.6410     0.5010 h1         1 EZ8       0.039700
     86 H35         -3.8520    -4.1390     2.4610 h1         1 EZ8       0.072200
     87 H36         -2.2240    -4.3320     1.7560 h1         1 EZ8       0.072200
     88 H37          0.2090    -0.0410     0.9150 h1         1 EZ8       0.081700
     89 H38          2.2240    -0.4880    -0.9370 h2         1 EZ8       0.088700
     90 H39          2.0800    -1.5230     4.6050 ho         1 EZ8       0.513000
     91 H40          2.5290    -5.4520     2.1620 ho         1 EZ8       0.520000
     92 H41          2.5550    -5.8360    -0.7780 ho         1 EZ8       0.474000
     93 H42          1.9310    -2.5640    -2.3440 h1         1 EZ8       0.135700
     94 H43          4.6590    -1.9520     0.3800 h4         1 EZ8       0.195000
     95 H44          7.6140    -0.6570    -1.2070 hx         1 EZ8       0.106200
     96 H45          7.4190    -1.7690     0.1490 hx         1 EZ8       0.106200
     97 H46          9.4110    -2.3290    -1.2260 hn         1 EZ8       0.513000
     98 H47          8.3350    -3.5770    -1.2670 hn         1 EZ8       0.513000
     99 H48          8.4620    -2.5690    -2.5540 hn         1 EZ8       0.513000
    100 H6           3.3250     5.4500    -1.0040 ha         1 EZ8       0.128000
@<TRIPOS>BOND
     1     1     2 1   
     2     1     5 1   
     3     1    44 1   
     4     1    53 1   
     5     2     3 1   
     6     2    42 1   
     7     2    54 1   
     8     3    43 1   
     9     3    55 1   
    10     3    56 1   
    11     4    46 1   
    12     4    47 1   
    13     4    48 1   
    14     5    45 1   
    15     5    46 1   
    16     5    57 1   
    17     6     7 ar  
    18     6    13 ar  
    19     6   100 1   
    20     7     8 ar  
    21     7    58 1   
    22     8     9 1   
    23     8    11 ar  
    24     9    10 1   
    25     9    59 1   
    26     9    60 1   
    27    10    61 1   
    28    11    12 ar  
    29    11    62 1   
    30    12    13 ar  
    31    12    63 1   
    32    13    14 1   
    33    14    15 1   
    34    14    64 1   
    35    14    65 1   
    36    15    16 1   
    37    15    66 1   
    38    16    17 2   
    39    16    18 1   
    40    18    19 1   
    41    18    20 1   
    42    18    67 1   
    43    19    39 1   
    44    19    68 1   
    45    19    69 1   
    46    20    21 1   
    47    20    33 1   
    48    20    70 1   
    49    21    22 2   
    50    21    23 1   
    51    23    24 1   
    52    23    71 1   
    53    24    25 1   
    54    24    72 1   
    55    24    73 1   
    56    25    26 ar  
    57    25    32 ar  
    58    26    27 ar  
    59    26    74 1   
    60    27    28 ar  
    61    27    75 1   
    62    28    29 1   
    63    28    31 ar  
    64    29    30 1   
    65    29    76 1   
    66    29    77 1   
    67    30    78 1   
    68    31    32 ar  
    69    31    79 1   
    70    32    80 1   
    71    33    34 1   
    72    33    81 1   
    73    33    82 1   
    74    34    35 1   
    75    34    39 1   
    76    34    83 1   
    77    35    36 1   
    78    36    37 1   
    79    36    84 1   
    80    36    85 1   
    81    37    38 1   
    82    37    86 1   
    83    37    87 1   
    84    39    40 1   
    85    39    88 1   
    86    40    41 1   
    87    41    42 1   
    88    41    46 1   
    89    41    89 1   
    90    43    90 1   
    91    44    91 1   
    92    45    92 1   
    93    46    93 1   
    94    47    50 2   
    95    47    94 1   
    96    48    49 2   
    97    49    50 1   
    98    50    51 1   
    99    51    52 1   
   100    51    95 1   
   101    51    96 1   
   102    52    97 1   
   103    52    98 1   
   104    52    99 1   
@<TRIPOS>SUBSTRUCTURE
     1 EZ8         1 TEMP              0 ****  ****    0 ROOT
