@<TRIPOS>MOLECULE
EZ8
  100   104     1     0     0
SMALL
bcc


@<TRIPOS>ATOM
      1 C4           1.5570    -3.1250     0.5960 c6         1 EZ8       0.083100
      2 C5           1.3830    -1.7810     1.3160 c6         1 EZ8       0.102100
      3 C6           2.0780    -1.7910     2.6600 c3         1 EZ8       0.153400
      4 N2           3.1390    -1.9940    -1.8650 na         1 EZ8       0.139400
      5 C3           1.1220    -3.0350    -0.8640 c6         1 EZ8       0.143100
      6 CAP          4.6910     4.0470     0.3070 ca         1 EZ8      -0.115000
      7 CAL          5.7030     3.1000     0.3760 ca         1 EZ8      -0.108500
      8 CBM          5.4590     1.8430     0.9220 ca         1 EZ8      -0.108300
      9 CAV          6.5480     0.8090     0.9700 c3         1 EZ8       0.196700
     10 OAE          7.6460     1.3220     1.6900 oh         1 EZ8      -0.570800
     11 CAM          4.1860     1.5670     1.4080 ca         1 EZ8      -0.108500
     12 CAQ          3.1740     2.5110     1.3330 ca         1 EZ8      -0.115000
     13 CBO          3.4140     3.7650     0.7820 ca         1 EZ8      -0.102300
     14 CAZ          2.3120     4.7930     0.6880 c3         1 EZ8       0.141300
     15 NBF          1.1960     4.3290    -0.1060 ns         1 EZ8      -0.572900
     16 CBK          0.0240     3.9100     0.4040 c          1 EZ8       0.662100
     17 OAC         -0.2540     4.0090     1.5910 o          1 EZ8      -0.595100
     18 CBW         -0.9180     3.2970    -0.6320 c6         1 EZ8      -0.122700
     19 CBB         -0.3230     1.9970    -1.1970 c6         1 EZ8      -0.101400
     20 CBV         -2.3220     3.0800    -0.0590 c6         1 EZ8      -0.129700
     21 CBJ         -3.3730     2.9800    -1.1600 c          1 EZ8       0.664100
     22 OAB         -3.1030     2.7940    -2.3380 o          1 EZ8      -0.609100
     23 NBE         -4.6370     3.1020    -0.7130 ns         1 EZ8      -0.566900
     24 CAY         -5.8140     2.8630    -1.5160 c3         1 EZ8       0.143300
     25 CBN         -6.4600     1.5340    -1.2070 ca         1 EZ8      -0.114300
     26 CAN         -7.8050     1.4580    -0.8670 ca         1 EZ8      -0.119500
     27 CAJ         -8.4060     0.2380    -0.5830 ca         1 EZ8      -0.114500
     28 CBL         -7.6700    -0.9410    -0.6300 ca         1 EZ8      -0.078300
     29 CAU         -8.2860    -2.2660    -0.2770 c3         1 EZ8       0.186700
     30 OAD         -9.6320    -2.2920    -0.6870 oh         1 EZ8      -0.589800
     31 CAK         -6.3230    -0.8660    -0.9780 ca         1 EZ8      -0.114500
     32 CAO         -5.7250     0.3520    -1.2590 ca         1 EZ8      -0.119500
     33 CBA         -2.3870     1.8490     0.8620 c6         1 EZ8      -0.102400
     34 CBT         -1.7990     0.5900     0.2340 c6         1 EZ8       0.157100
     35 OBG         -1.7900    -0.4750     1.1520 os         1 EZ8      -0.410600
     36 CAX         -2.9510    -1.2540     1.2070 c3         1 EZ8       0.134400
     37 CAT         -2.6340    -2.5590     1.8900 c3         1 EZ8       0.043000
     38 CL1         -2.0450    -2.2960     3.5680 cl         1 EZ8      -0.195400
     39 CBU         -0.3630     0.8510    -0.1940 c6         1 EZ8       0.148100
     40 O1           0.1230    -0.3410    -0.7890 os         1 EZ8      -0.431600
     41 C1           1.4920    -0.5630    -0.7340 c6         1 EZ8       0.340900
     42 O5           1.9740    -0.7310     0.5600 os         1 EZ8      -0.428600
     43 O6           1.8810    -0.5560     3.2970 oh         1 EZ8      -0.568800
     44 O4           0.7640    -4.1320     1.1840 oh         1 EZ8      -0.590800
     45 O3           1.4780    -4.1810    -1.5870 oh         1 EZ8      -0.595800
     46 C2           1.7260    -1.8220    -1.5700 c6         1 EZ8       0.026000
     47 CAR          4.2230    -1.9120    -1.0720 cc         1 EZ8      -0.158600
     48 NBD          3.4930    -2.3080    -3.1040 nc         1 EZ8      -0.126800
     49 NBC          4.7690    -2.4240    -3.1430 nd         1 EZ8      -0.353000
     50 CBP          5.2680    -2.1910    -1.9100 cd         1 EZ8       0.128600
     51 CAS          6.7200    -2.2420    -1.6170 c3         1 EZ8       0.144500
     52 NAA          7.2330    -3.6370    -1.6960 nz         1 EZ8      -0.837600
     53 H1           2.6180    -3.4140     0.6270 h1         1 EZ8       0.023700
     54 H2           0.3160    -1.5860     1.4680 h1         1 EZ8       0.119700
     55 H3           1.6640    -2.6190     3.2520 h1         1 EZ8       0.015200
     56 H4           3.1460    -2.0080     2.5090 h1         1 EZ8       0.015200
     57 H5           0.0340    -2.8830    -0.8770 h1         1 EZ8       0.094700
     58 H7           6.6850     3.3440    -0.0100 ha         1 EZ8       0.134000
     59 H8           6.1550    -0.1100     1.4270 h1         1 EZ8      -0.002300
     60 H9           6.8390     0.5530    -0.0580 h1         1 EZ8      -0.002300
     61 H10          8.3910     0.7270     1.5600 ho         1 EZ8       0.395000
     62 H11          3.9690     0.6040     1.8530 ha         1 EZ8       0.134000
     63 H12          2.1930     2.2560     1.7180 ha         1 EZ8       0.146000
     64 H13          1.9390     5.0450     1.6800 h1         1 EZ8       0.074700
     65 H14          2.7000     5.7150     0.2500 h1         1 EZ8       0.074700
     66 H15          1.3570     4.2190    -1.0940 hn         1 EZ8       0.312500
     67 H16         -0.9810     4.0100    -1.4600 hc         1 EZ8       0.088700
     68 H17         -0.8890     1.7070    -2.0820 hc         1 EZ8       0.064200
     69 H18          0.7040     2.1650    -1.5300 hc         1 EZ8       0.064200
     70 H19         -2.5880     3.9490     0.5520 hc         1 EZ8       0.089700
     71 H20         -4.7860     3.2520     0.2720 hn         1 EZ8       0.315500
     72 H21         -6.5300     3.6690    -1.3480 h1         1 EZ8       0.071700
     73 H22         -5.5250     2.9120    -2.5650 h1         1 EZ8       0.071700
     74 H23         -8.3960     2.3650    -0.8150 ha         1 EZ8       0.131500
     75 H24         -9.4550     0.2150    -0.3180 ha         1 EZ8       0.136000
     76 H25         -7.7020    -3.0700    -0.7440 h1         1 EZ8       0.025200
     77 H26         -8.2000    -2.4150     0.8080 h1         1 EZ8       0.025200
     78 H27        -10.0580    -3.0440    -0.2650 ho         1 EZ8       0.409000
     79 H28         -5.7320    -1.7730    -1.0380 ha         1 EZ8       0.136000
     80 H29         -4.6780     0.3740    -1.5360 ha         1 EZ8       0.131500
     81 H30         -1.8340     2.0710     1.7750 hc         1 EZ8       0.074200
     82 H31         -3.4190     1.6630     1.1670 hc         1 EZ8       0.074200
     83 H32         -2.3760     0.3040    -0.6610 h1         1 EZ8       0.052700
     84 H33         -3.7700    -0.7430     1.7280 h1         1 EZ8       0.039700
     85 H34         -3.3130    -1.5050     0.1990 h1         1 EZ8       0.039700
     86 H35         -3.5270    -3.1770     1.9490 h1         1 EZ8       0.072200
     87 H36         -1.8530    -3.1060     1.3660 h1         1 EZ8       0.072200
     88 H37          0.2240     1.0970     0.7010 h1         1 EZ8       0.081700
     89 H38          2.0630     0.2800    -1.1450 h2         1 EZ8       0.088700
     90 H39          2.3990    -0.5550     4.1070 ho         1 EZ8       0.414000
     91 H40          1.2270    -4.5030     1.9400 ho         1 EZ8       0.421000
     92 H41          1.0340    -4.9350    -1.1860 ho         1 EZ8       0.435000
     93 H42          1.2520    -1.6960    -2.5450 h1         1 EZ8       0.135700
     94 H43          4.1940    -1.6590    -0.0280 h4         1 EZ8       0.213000
     95 H44          7.2970    -1.6580    -2.3310 hx         1 EZ8       0.106200
     96 H45          6.9360    -1.8820    -0.6150 hx         1 EZ8       0.106200
     97 H46          8.2360    -3.6720    -1.5120 hn         1 EZ8       0.457800
     98 H47          6.7800    -4.2510    -1.0180 hn         1 EZ8       0.457800
     99 H48          7.0850    -4.0420    -2.6210 hn         1 EZ8       0.457800
    100 H6           4.8990     5.0180    -0.1280 ha         1 EZ8       0.146000
@<TRIPOS>BOND
     1     1     2 1   
     2     1     5 1   
     3     1    44 1   
     4     1    53 1   
     5     2     3 1   
     6     2    42 1   
     7     2    54 1   
     8     3    43 1   
     9     3    55 1   
    10     3    56 1   
    11     4    46 1   
    12     4    47 1   
    13     4    48 1   
    14     5    45 1   
    15     5    46 1   
    16     5    57 1   
    17     6     7 ar  
    18     6    13 ar  
    19     6   100 1   
    20     7     8 ar  
    21     7    58 1   
    22     8     9 1   
    23     8    11 ar  
    24     9    10 1   
    25     9    59 1   
    26     9    60 1   
    27    10    61 1   
    28    11    12 ar  
    29    11    62 1   
    30    12    13 ar  
    31    12    63 1   
    32    13    14 1   
    33    14    15 1   
    34    14    64 1   
    35    14    65 1   
    36    15    16 1   
    37    15    66 1   
    38    16    17 2   
    39    16    18 1   
    40    18    19 1   
    41    18    20 1   
    42    18    67 1   
    43    19    39 1   
    44    19    68 1   
    45    19    69 1   
    46    20    21 1   
    47    20    33 1   
    48    20    70 1   
    49    21    22 2   
    50    21    23 1   
    51    23    24 1   
    52    23    71 1   
    53    24    25 1   
    54    24    72 1   
    55    24    73 1   
    56    25    26 ar  
    57    25    32 ar  
    58    26    27 ar  
    59    26    74 1   
    60    27    28 ar  
    61    27    75 1   
    62    28    29 1   
    63    28    31 ar  
    64    29    30 1   
    65    29    76 1   
    66    29    77 1   
    67    30    78 1   
    68    31    32 ar  
    69    31    79 1   
    70    32    80 1   
    71    33    34 1   
    72    33    81 1   
    73    33    82 1   
    74    34    35 1   
    75    34    39 1   
    76    34    83 1   
    77    35    36 1   
    78    36    37 1   
    79    36    84 1   
    80    36    85 1   
    81    37    38 1   
    82    37    86 1   
    83    37    87 1   
    84    39    40 1   
    85    39    88 1   
    86    40    41 1   
    87    41    42 1   
    88    41    46 1   
    89    41    89 1   
    90    43    90 1   
    91    44    91 1   
    92    45    92 1   
    93    46    93 1   
    94    47    50 2   
    95    47    94 1   
    96    48    49 2   
    97    49    50 1   
    98    50    51 1   
    99    51    52 1   
   100    51    95 1   
   101    51    96 1   
   102    52    97 1   
   103    52    98 1   
   104    52    99 1   
@<TRIPOS>SUBSTRUCTURE
     1 EZ8         1 TEMP              0 ****  ****    0 ROOT
