@<TRIPOS>MOLECULE
EZ9
   62    66     1     0     0
SMALL
No Charge or Current Charge


@<TRIPOS>ATOM
      1 C01         19.3020     9.5730    36.4080 c3         1 EZ9      -0.104100
      2 C02         18.8440     8.7460    37.6200 c3         1 EZ9       0.204800
      3 N03         19.7290     7.5880    37.8100 nu         1 EZ9      -0.946200
      4 C04         19.6360     6.6050    38.8020 ca         1 EZ9       0.316000
      5 C05         18.6230     6.6330    39.7820 ca         1 EZ9      -0.212000
      6 C06         18.5490     5.6230    40.7640 ca         1 EZ9       0.180000
      7 C07         19.4790     4.5660    40.7990 ca         1 EZ9      -0.139000
      8 C08         20.5000     4.5400    39.8290 cp         1 EZ9      -0.017000
      9 C09         20.5530     5.5390    38.8620 ca         1 EZ9      -0.069200
     10 N10         21.6510     5.2080    38.0410 na         1 EZ9      -0.327300
     11 C11         22.3010     4.0380    38.4330 ca         1 EZ9       0.416500
     12 C12         21.6020     3.6120    39.5650 cp         1 EZ9      -0.137000
     13 C13         22.0550     2.4350    40.1870 ca         1 EZ9       0.088800
     14 C14         23.1580     1.6950    39.6830 cp         1 EZ9      -0.052000
     15 C15         23.7560     2.2460    38.5100 ca         1 EZ9       0.385900
     16 N16         23.3520     3.3940    37.8940 nb         1 EZ9      -0.691000
     17 C17         23.6680     0.4170    40.2810 cp         1 EZ9      -0.246000
     18 C18         23.9480     0.2660    41.6590 ca         1 EZ9       0.170400
     19 N19         24.4010    -0.8890    42.1770 nb         1 EZ9      -0.219500
     20 C20         24.5920    -1.9240    41.3260 ca         1 EZ9       0.395300
     21 N21         24.3700    -1.8780    39.9960 nb         1 EZ9      -0.219500
     22 C22         23.9170    -0.7210    39.4810 ca         1 EZ9       0.170400
     23 O23         25.0500    -3.1270    41.8200 os         1 EZ9      -0.393300
     24 C24         25.3020    -3.3160    43.2260 c3         1 EZ9       0.199600
     25 C25         25.7850    -4.7710    43.4610 c3         1 EZ9      -0.196000
     26 C26         24.6760    -5.7790    43.0260 c3         1 EZ9      -0.055100
     27 C27         26.0580    -4.9720    44.9780 c3         1 EZ9      -0.055100
     28 C28         27.1170    -4.9820    42.6780 c          1 EZ9       0.732000
     29 O29         28.0540    -4.2330    42.9170 o          1 EZ9      -0.724500
     30 O30         27.2030    -5.9030    41.8760 o          1 EZ9      -0.724500
     31 N31         21.3660     1.9600    41.3030 na         1 EZ9       0.232000
     32 C32         21.5340     2.4760    42.5780 cc         1 EZ9      -0.164000
     33 C33         20.6890     1.6930    43.3120 cd         1 EZ9      -0.178000
     34 C34         20.0700     0.7650    42.4300 cd         1 EZ9       0.129300
     35 N35         20.4760     0.9190    41.1770 nc         1 EZ9      -0.434800
     36 C36         19.0590    -0.3060    42.8080 c3         1 EZ9       0.295700
     37 F37         17.8940    -0.1620    42.1330 f          1 EZ9      -0.107000
     38 F38         18.7520    -0.2760    44.1260 f          1 EZ9      -0.107000
     39 F39         19.5200    -1.5500    42.5420 f          1 EZ9      -0.107000
     40 F40         17.5630     5.6680    41.6860 f          1 EZ9      -0.184000
     41 H1          18.6400    10.4360    36.2690 hc         1 EZ9       0.042367
     42 H2          20.3230     9.9460    36.5540 hc         1 EZ9       0.042367
     43 H3          19.2750     8.9710    35.4920 hc         1 EZ9       0.042367
     44 H4          18.8570     9.3820    38.5160 h1         1 EZ9       0.040700
     45 H5          17.8110     8.4090    37.4560 h1         1 EZ9       0.040700
     46 H6          20.4970     7.4850    37.1480 hn         1 EZ9       0.460000
     47 H7          17.8860     7.4290    39.7890 ha         1 EZ9       0.129000
     48 H8          19.3910     3.7960    41.5580 ha         1 EZ9       0.147000
     49 H9          21.9520     5.7430    37.2390 hn         1 EZ9       0.363000
     50 H10         24.6050     1.7410    38.0510 h4         1 EZ9       0.039100
     51 H11         23.8220     1.0900    42.3570 h4         1 EZ9       0.012100
     52 H12         23.7390    -0.7030    38.4070 h4         1 EZ9       0.012100
     53 H13         26.0640    -2.6080    43.5790 h1         1 EZ9       0.041200
     54 H14         24.3850    -3.1400    43.8050 h1         1 EZ9       0.041200
     55 H15         23.7410    -5.5870    43.5670 hc         1 EZ9       0.018867
     56 H16         24.4630    -5.7040    41.9530 hc         1 EZ9       0.018867
     57 H17         24.9790    -6.8120    43.2390 hc         1 EZ9       0.018867
     58 H18         26.7950    -4.2490    45.3490 hc         1 EZ9       0.018867
     59 H19         25.1390    -4.8430    45.5630 hc         1 EZ9       0.018867
     60 H20         26.4460    -5.9790    45.1730 hc         1 EZ9       0.018867
     61 H22         22.1980     3.2950    42.8250 h4         1 EZ9       0.167000
     62 H23         20.5220     1.7660    44.3830 ha         1 EZ9       0.159000
@<TRIPOS>BOND
     1     1     2 1   
     2     1    41 1   
     3     1    42 1   
     4     1    43 1   
     5     2     3 1   
     6     2    44 1   
     7     2    45 1   
     8     3     4 1   
     9     3    46 1   
    10     4     5 ar  
    11     4     9 ar  
    12     5     6 ar  
    13     5    47 1   
    14     6     7 ar  
    15     6    40 1   
    16     7     8 ar  
    17     7    48 1   
    18     8     9 ar  
    19     8    12 1   
    20     9    10 1   
    21    10    11 1   
    22    10    49 1   
    23    11    12 ar  
    24    11    16 ar  
    25    12    13 ar  
    26    13    14 ar  
    27    13    31 1   
    28    14    15 ar  
    29    14    17 1   
    30    15    16 ar  
    31    15    50 1   
    32    17    18 ar  
    33    17    22 ar  
    34    18    19 ar  
    35    18    51 1   
    36    19    20 ar  
    37    20    21 ar  
    38    20    23 1   
    39    21    22 ar  
    40    22    52 1   
    41    23    24 1   
    42    24    25 1   
    43    24    53 1   
    44    24    54 1   
    45    25    26 1   
    46    25    27 1   
    47    25    28 1   
    48    26    55 1   
    49    26    56 1   
    50    26    57 1   
    51    27    58 1   
    52    27    59 1   
    53    27    60 1   
    54    28    29 1   
    55    28    30 1   
    56    31    32 1   
    57    31    35 1   
    58    32    33 2   
    59    32    61 1   
    60    33    34 1   
    61    33    62 1   
    62    34    35 2   
    63    34    36 1   
    64    36    37 1   
    65    36    38 1   
    66    36    39 1   
@<TRIPOS>SUBSTRUCTURE
     1 EZ9         1 TEMP              0 ****  ****    0 ROOT
