@<TRIPOS>MOLECULE
EZ9
   62    66     1     0     0
SMALL
abcg2


@<TRIPOS>ATOM
      1 C01         19.5880     9.5450    36.4440 c3         1 EZ9      -0.104100
      2 C02         19.0930     8.6380    37.5530 c3         1 EZ9       0.204800
      3 N03         20.0290     7.5560    37.7780 nu         1 EZ9      -0.946200
      4 C04         19.7910     6.6080    38.7390 ca         1 EZ9       0.316000
      5 C05         18.7410     6.6890    39.6500 ca         1 EZ9      -0.212000
      6 C06         18.5710     5.7090    40.6270 ca         1 EZ9       0.180000
      7 C07         19.3890     4.6220    40.7810 ca         1 EZ9      -0.139000
      8 C08         20.4560     4.5260    39.8770 cp         1 EZ9      -0.017000
      9 C09         20.6440     5.4960    38.8820 ca         1 EZ9      -0.069200
     10 N10         21.7400     5.1600    38.1130 na         1 EZ9      -0.327300
     11 C11         22.2620     3.9960    38.5690 ca         1 EZ9       0.416500
     12 C12         21.5090     3.5640    39.6870 cp         1 EZ9      -0.137000
     13 C13         21.9130     2.3810    40.2820 ca         1 EZ9       0.088800
     14 C14         22.9950     1.6810    39.7510 cp         1 EZ9      -0.052000
     15 C15         23.6320     2.2290    38.6270 ca         1 EZ9       0.385900
     16 N16         23.2930     3.3630    38.0400 nb         1 EZ9      -0.691000
     17 C17         23.4830     0.4160    40.3200 cp         1 EZ9      -0.246000
     18 C18         23.8020     0.2510    41.6620 ca         1 EZ9       0.170400
     19 N19         24.2260    -0.8970    42.1640 nb         1 EZ9      -0.219500
     20 C20         24.3560    -1.9070    41.3170 ca         1 EZ9       0.395300
     21 N21         24.1020    -1.8690    40.0130 nb         1 EZ9      -0.219500
     22 C22         23.6660    -0.7200    39.5340 ca         1 EZ9       0.170400
     23 O23         24.7780    -3.0770    41.7520 os         1 EZ9      -0.393300
     24 C24         25.0690    -3.2480    43.1440 c3         1 EZ9       0.199600
     25 C25         25.7260    -4.6060    43.3260 c3         1 EZ9      -0.196000
     26 C26         24.7660    -5.7280    42.9360 c3         1 EZ9      -0.055100
     27 C27         26.0580    -4.7370    44.8170 c3         1 EZ9      -0.055100
     28 C28         27.0600    -4.6460    42.5210 c          1 EZ9       0.732000
     29 O29         27.7990    -3.6470    42.6390 o          1 EZ9      -0.724500
     30 O30         27.2990    -5.6690    41.8530 o          1 EZ9      -0.724500
     31 N31         21.2420     1.8990    41.4280 na         1 EZ9       0.232000
     32 C32         21.1930     2.4940    42.6430 cc         1 EZ9      -0.164000
     33 C33         20.5240     1.6350    43.4730 cd         1 EZ9      -0.178000
     34 C34         20.2190     0.5410    42.6450 cd         1 EZ9       0.129300
     35 N35         20.6580     0.7080    41.4160 nc         1 EZ9      -0.434800
     36 C36         19.4540    -0.6800    43.0050 c3         1 EZ9       0.295700
     37 F37         18.1340    -0.5030    42.8570 f          1 EZ9      -0.107000
     38 F38         19.6580    -1.0120    44.2840 f          1 EZ9      -0.107000
     39 F39         19.7940    -1.7240    42.2480 f          1 EZ9      -0.107000
     40 F40         17.5160     5.8510    41.4520 f          1 EZ9      -0.184000
     41 H1          18.8870    10.3630    36.2900 hc         1 EZ9       0.042367
     42 H2          20.5600     9.9730    36.6900 hc         1 EZ9       0.042367
     43 H3          19.6810     9.0050    35.5010 hc         1 EZ9       0.042367
     44 H4          18.9960     9.2140    38.4770 h1         1 EZ9       0.040700
     45 H5          18.0910     8.2620    37.3090 h1         1 EZ9       0.040700
     46 H6          20.4590     7.2140    36.9310 hn         1 EZ9       0.460000
     47 H7          18.0320     7.5050    39.6050 ha         1 EZ9       0.129000
     48 H8          19.2010     3.8850    41.5490 ha         1 EZ9       0.147000
     49 H9          22.1200     5.6800    37.3390 hn         1 EZ9       0.363000
     50 H10         24.4850     1.7070    38.2070 h4         1 EZ9       0.039100
     51 H11         23.7230     1.0780    42.3600 h4         1 EZ9       0.012100
     52 H12         23.4390    -0.6930    38.4720 h4         1 EZ9       0.012100
     53 H13         25.7330    -2.4550    43.4860 h1         1 EZ9       0.041200
     54 H14         24.1380    -3.1850    43.7180 h1         1 EZ9       0.041200
     55 H15         23.8370    -5.6550    43.5080 hc         1 EZ9       0.018867
     56 H16         24.5060    -5.7090    41.8780 hc         1 EZ9       0.018867
     57 H17         25.2030    -6.7040    43.1460 hc         1 EZ9       0.018867
     58 H18         26.7250    -3.9420    45.1540 hc         1 EZ9       0.018867
     59 H19         25.1520    -4.6970    45.4270 hc         1 EZ9       0.018867
     60 H20         26.5450    -5.6920    45.0210 hc         1 EZ9       0.018867
     61 H22         21.6410     3.4590    42.8230 h4         1 EZ9       0.167000
     62 H23         20.2990     1.7740    44.5160 ha         1 EZ9       0.159000
@<TRIPOS>BOND
     1     1     2 1   
     2     1    41 1   
     3     1    42 1   
     4     1    43 1   
     5     2     3 1   
     6     2    44 1   
     7     2    45 1   
     8     3     4 1   
     9     3    46 1   
    10     4     5 ar  
    11     4     9 ar  
    12     5     6 ar  
    13     5    47 1   
    14     6     7 ar  
    15     6    40 1   
    16     7     8 ar  
    17     7    48 1   
    18     8     9 ar  
    19     8    12 1   
    20     9    10 1   
    21    10    11 1   
    22    10    49 1   
    23    11    12 ar  
    24    11    16 ar  
    25    12    13 ar  
    26    13    14 ar  
    27    13    31 1   
    28    14    15 ar  
    29    14    17 1   
    30    15    16 ar  
    31    15    50 1   
    32    17    18 ar  
    33    17    22 ar  
    34    18    19 ar  
    35    18    51 1   
    36    19    20 ar  
    37    20    21 ar  
    38    20    23 1   
    39    21    22 ar  
    40    22    52 1   
    41    23    24 1   
    42    24    25 1   
    43    24    53 1   
    44    24    54 1   
    45    25    26 1   
    46    25    27 1   
    47    25    28 1   
    48    26    55 1   
    49    26    56 1   
    50    26    57 1   
    51    27    58 1   
    52    27    59 1   
    53    27    60 1   
    54    28    29 1   
    55    28    30 1   
    56    31    32 1   
    57    31    35 1   
    58    32    33 2   
    59    32    61 1   
    60    33    34 1   
    61    33    62 1   
    62    34    35 2   
    63    34    36 1   
    64    36    37 1   
    65    36    38 1   
    66    36    39 1   
@<TRIPOS>SUBSTRUCTURE
     1 EZ9         1 TEMP              0 ****  ****    0 ROOT
