@<TRIPOS>MOLECULE
EZA
  107   111     1     0     0
SMALL
No Charge or Current Charge


@<TRIPOS>ATOM
      1 C8          -2.3310    -0.3370    -0.5100 c3         1 EZA       0.035700
      2 C5          -6.7910     1.5690    -1.6750 c2         1 EZA      -0.132200
      3 C6          -5.7730     0.6870    -1.8090 ce         1 EZA      -0.303200
      4 N6           3.1880    -3.2160    -0.9130 n          1 EZA      -0.405800
      5 N1          -3.6520    -0.2390    -1.1750 ns         1 EZA      -0.492900
      6 C2         -10.4910     0.2790    -1.6660 c3         1 EZA      -0.075400
      7 N3           2.1670     2.3700    -0.1300 n          1 EZA      -0.392800
      8 C4          -8.2040     1.3540    -2.1720 c3         1 EZA      -0.057200
      9 C1         -11.3230    -0.5660    -0.6820 c3         1 EZA      -0.089100
     10 C3          -9.0400     0.5090    -1.1890 c3         1 EZA      -0.073400
     11 C7          -4.4150     0.9010    -1.2440 c          1 EZA       0.613300
     12 O1          -4.0330     1.9800    -0.8180 o          1 EZA      -0.601100
     13 C9          -2.4810    -0.8180     0.9590 c3         1 EZA      -0.049100
     14 C10         -3.3730     0.0920     1.7950 ca         1 EZA      -0.022300
     15 C11         -4.7380    -0.2080     1.9710 ca         1 EZA      -0.158500
     16 C12         -5.5590     0.6520     2.7170 ca         1 EZA       0.198500
     17 F1          -6.8680     0.3610     2.8730 f          1 EZA      -0.177500
     18 C13         -5.0300     1.8110     3.3000 ca         1 EZA      -0.197000
     19 C14         -3.6710     2.1090     3.1290 ca         1 EZA       0.198500
     20 F2          -3.1550     3.2260     3.6870 f          1 EZA      -0.177500
     21 C15         -2.8430     1.2570     2.3820 ca         1 EZA      -0.158500
     22 C16         -1.3700    -1.2540    -1.3160 c          1 EZA       0.600100
     23 O2          -1.7280    -1.9480    -2.2600 o          1 EZA      -0.605100
     24 N2          -0.0630    -1.2370    -0.8880 ns         1 EZA      -0.495900
     25 C17          1.0730    -1.9210    -1.5550 c3         1 EZA       0.019700
     26 C18          1.7460    -1.0320    -2.6430 c3         1 EZA       0.131600
     27 O3           2.0310     0.2810    -2.1020 os         1 EZA      -0.444100
     28 C19          1.0780     1.2750    -2.2070 c          1 EZA       0.589100
     29 O4           0.0170     1.1440    -2.8040 o          1 EZA      -0.457000
     30 C20          1.5110     2.5630    -1.4480 c5         1 EZA       0.048700
     31 C21          2.6620     3.2770    -2.2090 c5         1 EZA      -0.082400
     32 C22          3.1750     4.2860    -1.1430 c5         1 EZA      -0.080700
     33 C23          2.3180     5.5710    -1.0250 c3         1 EZA      -0.091100
     34 C24          3.1740     3.4220     0.1560 c5         1 EZA       0.107000
     35 C25          1.6280     1.5520     0.8840 c          1 EZA       0.604100
     36 O5           0.5110     1.0620     0.7540 o          1 EZA      -0.637100
     37 C26          2.5810     1.1690     2.0590 c3         1 EZA       0.046700
     38 C27          1.8960     0.3080     3.1510 c3         1 EZA      -0.099100
     39 N4           3.7910     0.5270     1.4870 ns         1 EZA      -0.500900
     40 C28          4.9840     0.2970     2.1370 c          1 EZA       0.592100
     41 O6           5.1130     0.5160     3.3340 o          1 EZA      -0.621100
     42 C29          6.0740    -0.4480     1.3070 c6         1 EZA       0.020700
     43 C30          6.9950     0.5800     0.5850 c6         1 EZA      -0.074400
     44 C31          6.4400     1.0650    -0.7610 c6         1 EZA      -0.075400
     45 C32          6.2560    -0.1500    -1.6660 c6         1 EZA      -0.096400
     46 C33          5.2810    -1.1670    -1.0450 c6         1 EZA       0.095000
     47 N5           5.5140    -1.5310     0.3940 n          1 EZA      -0.406800
     48 C34          4.9460    -2.6920     1.0140 c          1 EZA       0.617100
     49 O7           5.0640    -2.8640     2.2220 o          1 EZA      -0.587100
     50 C35          4.1750    -3.7150     0.0870 c5         1 EZA       0.023700
     51 C36          5.1560    -4.5840    -0.7680 c5         1 EZA      -0.084400
     52 C37          4.5490    -4.6030    -2.2070 c5         1 EZA      -0.093400
     53 C38          3.0700    -4.1880    -2.0140 c5         1 EZA       0.096000
     54 C39          2.0950    -2.4240    -0.4950 c          1 EZA       0.608100
     55 O8           2.0020    -2.0910     0.6790 o          1 EZA      -0.609100
     56 H1          -1.8630     0.6560    -0.5030 h1         1 EZA       0.120700
     57 H2          -6.6360     2.5230    -1.1640 ha         1 EZA       0.192000
     58 H3          -5.9480    -0.2780    -2.2810 ha         1 EZA       0.176000
     59 H4          -4.0480    -1.0790    -1.5800 hn         1 EZA       0.324500
     60 H5         -10.4770    -0.2220    -2.6420 hc         1 EZA       0.036700
     61 H6         -10.9850     1.2480    -1.8100 hc         1 EZA       0.036700
     62 H7          -8.6950     2.3230    -2.3240 hc         1 EZA       0.048700
     63 H8          -8.1850     0.8580    -3.1510 hc         1 EZA       0.048700
     64 H9         -12.3420    -0.7020    -1.0620 hc         1 EZA       0.032700
     65 H10        -10.8730    -1.5560    -0.5440 hc         1 EZA       0.032700
     66 H11        -11.3850    -0.0730     0.2960 hc         1 EZA       0.032700
     67 H12         -9.0560     1.0080    -0.2110 hc         1 EZA       0.044700
     68 H13         -8.5500    -0.4620    -1.0430 hc         1 EZA       0.044700
     69 H14         -2.8790    -1.8400     0.9610 hc         1 EZA       0.061700
     70 H15         -1.4910    -0.8820     1.4270 hc         1 EZA       0.061700
     71 H16         -5.1680    -1.0990     1.5210 ha         1 EZA       0.140000
     72 H17         -5.6670     2.4740     3.8770 ha         1 EZA       0.146000
     73 H18         -1.7940     1.5080     2.2530 ha         1 EZA       0.140000
     74 H19          0.1520    -0.6080    -0.1130 hn         1 EZA       0.358500
     75 H20          0.6880    -2.8220    -2.0480 h1         1 EZA       0.094700
     76 H21          2.6790    -1.5070    -2.9720 h1         1 EZA       0.074700
     77 H22          1.0970    -0.9710    -3.5270 h1         1 EZA       0.074700
     78 H23          0.6240     3.2010    -1.3520 h1         1 EZA       0.106700
     79 H24          3.4550     2.5720    -2.4910 hc         1 EZA       0.063200
     80 H25          2.3200     3.7630    -3.1300 hc         1 EZA       0.063200
     81 H26          4.1910     4.6200    -1.3820 hc         1 EZA       0.066700
     82 H27          2.7350     6.2500    -0.2710 hc         1 EZA       0.042367
     83 H28          2.2900     6.1140    -1.9780 hc         1 EZA       0.042367
     84 H29          1.2840     5.3510    -0.7340 hc         1 EZA       0.042367
     85 H30          2.9060     4.0170     1.0390 h1         1 EZA       0.062200
     86 H31          4.1610     2.9840     0.3390 h1         1 EZA       0.062200
     87 H32          2.8910     2.1120     2.5280 h1         1 EZA       0.087700
     88 H33          1.5590    -0.6530     2.7500 hc         1 EZA       0.053033
     89 H34          2.5780     0.1090     3.9850 hc         1 EZA       0.053033
     90 H35          1.0210     0.8310     3.5540 hc         1 EZA       0.053033
     91 H36          3.7500     0.2080     0.5260 hn         1 EZA       0.353500
     92 H37          6.6950    -0.9370     2.0710 h1         1 EZA       0.110700
     93 H38          7.1870     1.4390     1.2430 hc         1 EZA       0.062700
     94 H39          7.9750     0.1140     0.4150 hc         1 EZA       0.062700
     95 H40          5.4860     1.5880    -0.6320 hc         1 EZA       0.047700
     96 H41          7.1380     1.7780    -1.2220 hc         1 EZA       0.047700
     97 H42          5.8840     0.1650    -2.6510 hc         1 EZA       0.046200
     98 H43          7.2270    -0.6340    -1.8410 hc         1 EZA       0.046200
     99 H44          4.2640    -0.7640    -1.1390 h1         1 EZA       0.056700
    100 H45          5.3370    -2.0610    -1.6710 h1         1 EZA       0.056700
    101 H46          3.6420    -4.3750     0.7850 h1         1 EZA       0.086700
    102 H47          6.1750    -4.1800    -0.7760 hc         1 EZA       0.064200
    103 H48          5.2290    -5.5960    -0.3540 hc         1 EZA       0.064200
    104 H49          5.0660    -3.8920    -2.8610 hc         1 EZA       0.058700
    105 H50          4.6400    -5.5850    -2.6850 hc         1 EZA       0.058700
    106 H51          2.4500    -5.0420    -1.7100 h1         1 EZA       0.055700
    107 H52          2.6490    -3.7610    -2.9330 h1         1 EZA       0.055700
@<TRIPOS>BOND
     1     1     5 1   
     2     1    13 1   
     3     1    22 1   
     4     1    56 1   
     5     2     3 2   
     6     2     8 1   
     7     2    57 1   
     8     3    11 1   
     9     3    58 1   
    10     4    50 1   
    11     4    53 1   
    12     4    54 1   
    13     5    11 1   
    14     5    59 1   
    15     6     9 1   
    16     6    10 1   
    17     6    60 1   
    18     6    61 1   
    19     7    30 1   
    20     7    34 1   
    21     7    35 1   
    22     8    10 1   
    23     8    62 1   
    24     8    63 1   
    25     9    64 1   
    26     9    65 1   
    27     9    66 1   
    28    10    67 1   
    29    10    68 1   
    30    11    12 2   
    31    13    14 1   
    32    13    69 1   
    33    13    70 1   
    34    14    15 ar  
    35    14    21 ar  
    36    15    16 ar  
    37    15    71 1   
    38    16    17 1   
    39    16    18 ar  
    40    18    19 ar  
    41    18    72 1   
    42    19    20 1   
    43    19    21 ar  
    44    21    73 1   
    45    22    23 2   
    46    22    24 1   
    47    24    25 1   
    48    24    74 1   
    49    25    26 1   
    50    25    54 1   
    51    25    75 1   
    52    26    27 1   
    53    26    76 1   
    54    26    77 1   
    55    27    28 1   
    56    28    29 2   
    57    28    30 1   
    58    30    31 1   
    59    30    78 1   
    60    31    32 1   
    61    31    79 1   
    62    31    80 1   
    63    32    33 1   
    64    32    34 1   
    65    32    81 1   
    66    33    82 1   
    67    33    83 1   
    68    33    84 1   
    69    34    85 1   
    70    34    86 1   
    71    35    36 2   
    72    35    37 1   
    73    37    38 1   
    74    37    39 1   
    75    37    87 1   
    76    38    88 1   
    77    38    89 1   
    78    38    90 1   
    79    39    40 1   
    80    39    91 1   
    81    40    41 2   
    82    40    42 1   
    83    42    43 1   
    84    42    47 1   
    85    42    92 1   
    86    43    44 1   
    87    43    93 1   
    88    43    94 1   
    89    44    45 1   
    90    44    95 1   
    91    44    96 1   
    92    45    46 1   
    93    45    97 1   
    94    45    98 1   
    95    46    47 1   
    96    46    99 1   
    97    46   100 1   
    98    47    48 1   
    99    48    49 2   
   100    48    50 1   
   101    50    51 1   
   102    50   101 1   
   103    51    52 1   
   104    51   102 1   
   105    51   103 1   
   106    52    53 1   
   107    52   104 1   
   108    52   105 1   
   109    53   106 1   
   110    53   107 1   
   111    54    55 2   
@<TRIPOS>SUBSTRUCTURE
     1 EZA         1 TEMP              0 ****  ****    0 ROOT
