@<TRIPOS>MOLECULE
EZA
  107   111     1     0     0
SMALL
bcc


@<TRIPOS>ATOM
      1 C8          -2.2980    -0.8670    -0.2430 c3         1 EZA       0.035700
      2 C5          -6.4850     1.1340    -1.7930 c2         1 EZA      -0.082200
      3 C6          -5.6030     0.1430    -1.6750 ce         1 EZA      -0.253200
      4 N6           3.2460    -3.1010    -0.9010 n          1 EZA      -0.472800
      5 N1          -3.5730    -0.7990    -0.8910 ns         1 EZA      -0.559900
      6 C2         -10.3390     1.0290    -2.0250 c3         1 EZA      -0.075400
      7 N3           1.9140     2.2820    -0.2700 n          1 EZA      -0.459800
      8 C4          -7.8310     1.0000    -2.4180 c3         1 EZA      -0.057200
      9 C1         -11.4620     1.0740    -0.9990 c3         1 EZA      -0.089100
     10 C3          -8.9570     1.0950    -1.3850 c3         1 EZA      -0.073400
     11 C7          -4.2900     0.3390    -1.0170 c          1 EZA       0.680300
     12 O1          -3.8910     1.4270    -0.6270 o          1 EZA      -0.601100
     13 C9          -2.4160    -1.4630     1.1760 c3         1 EZA      -0.049100
     14 C10         -3.2670    -0.5910     2.0500 ca         1 EZA      -0.022300
     15 C11         -4.6230    -0.8540     2.2060 ca         1 EZA      -0.176500
     16 C12         -5.3850     0.0080     2.9700 ca         1 EZA       0.163400
     17 F1          -6.6940    -0.2430     3.1180 f          1 EZA      -0.142400
     18 C13         -4.8590     1.1210     3.5960 ca         1 EZA      -0.215000
     19 C14         -3.5060     1.3480     3.4200 ca         1 EZA       0.163400
     20 F2          -2.9590     2.4180     4.0150 f          1 EZA      -0.142400
     21 C15         -2.7010     0.5230     2.6640 ca         1 EZA      -0.176500
     22 C16         -1.3180    -1.6770    -1.0900 c          1 EZA       0.667100
     23 O2          -1.6630    -2.3310    -2.0580 o          1 EZA      -0.605100
     24 N2          -0.0500    -1.6090    -0.6460 ns         1 EZA      -0.562900
     25 C17          1.0630    -2.1100    -1.4030 c3         1 EZA       0.019700
     26 C18          1.4630    -1.1180    -2.5080 c3         1 EZA       0.108400
     27 O3           1.6490     0.1760    -1.9450 os         1 EZA      -0.420900
     28 C19          0.6770     1.0800    -2.0580 c          1 EZA       0.638100
     29 O4          -0.3520     0.9100    -2.6560 o          1 EZA      -0.506000
     30 C20          1.0540     2.4040    -1.4330 c5         1 EZA       0.048700
     31 C21          1.8830     3.2600    -2.4080 c5         1 EZA      -0.082400
     32 C22          2.7960     4.0670    -1.4840 c5         1 EZA      -0.080700
     33 C23          2.0940     5.2780    -0.8830 c3         1 EZA      -0.091100
     34 C24          3.1560     3.0270    -0.4260 c5         1 EZA       0.107000
     35 C25          1.4760     1.6070     0.8010 c          1 EZA       0.671100
     36 O5           0.3600     1.0940     0.8080 o          1 EZA      -0.637100
     37 C26          2.4320     1.4660     1.9840 c3         1 EZA       0.046700
     38 C27          1.7340     0.9040     3.2110 c3         1 EZA      -0.099100
     39 N4           3.5310     0.6220     1.5640 ns         1 EZA      -0.567900
     40 C28          4.8270     0.9310     1.7200 c          1 EZA       0.659100
     41 O6           5.2200     1.9920     2.1820 o          1 EZA      -0.621100
     42 C29          5.8250    -0.1710     1.3370 c6         1 EZA       0.020700
     43 C30          7.1380     0.3970     0.8040 c6         1 EZA      -0.074400
     44 C31          7.0030     0.9230    -0.6170 c6         1 EZA      -0.075400
     45 C32          6.4500    -0.1730    -1.5140 c6         1 EZA      -0.096400
     46 C33          5.1350    -0.7060    -0.9680 c6         1 EZA       0.095000
     47 N5           5.2620    -1.1490     0.4150 n          1 EZA      -0.473800
     48 C34          4.9370    -2.3780     0.8880 c          1 EZA       0.684100
     49 O7           5.1550    -2.7020     2.0450 o          1 EZA      -0.587100
     50 C35          4.3670    -3.4560    -0.0360 c5         1 EZA       0.023700
     51 C36          5.4230    -4.0530    -0.9970 c5         1 EZA      -0.084400
     52 C37          4.7620    -4.0790    -2.3810 c5         1 EZA      -0.093400
     53 C38          3.2740    -3.9370    -2.1000 c5         1 EZA       0.096000
     54 C39          2.2220    -2.3720    -0.4440 c          1 EZA       0.675100
     55 O8           2.2260    -1.8840     0.6810 o          1 EZA      -0.609100
     56 H1          -1.9070     0.1500    -0.1630 h1         1 EZA       0.120700
     57 H2          -6.2300     2.1100    -1.3910 ha         1 EZA       0.142000
     58 H3          -5.8410    -0.8470    -2.0540 ha         1 EZA       0.126000
     59 H4          -3.9650    -1.6610    -1.2360 hn         1 EZA       0.324500
     60 H5         -10.4190     0.1140    -2.6190 hc         1 EZA       0.036700
     61 H6         -10.4490     1.8590    -2.7300 hc         1 EZA       0.036700
     62 H7          -7.9610     1.7980    -3.1560 hc         1 EZA       0.048700
     63 H8          -7.9060     0.0520    -2.9570 hc         1 EZA       0.048700
     64 H9         -12.4420     1.0340    -1.4760 hc         1 EZA       0.032700
     65 H10        -11.3950     0.2330    -0.3070 hc         1 EZA       0.032700
     66 H11        -11.4200     1.9910    -0.4080 hc         1 EZA       0.032700
     67 H12         -8.8610     2.0260    -0.8180 hc         1 EZA       0.044700
     68 H13         -8.8470     0.2810    -0.6610 hc         1 EZA       0.044700
     69 H14         -2.8390    -2.4670     1.1040 hc         1 EZA       0.061700
     70 H15         -1.4230    -1.5690     1.6160 hc         1 EZA       0.061700
     71 H16         -5.0820    -1.7150     1.7370 ha         1 EZA       0.158000
     72 H17         -5.4730     1.7800     4.1960 ha         1 EZA       0.164000
     73 H18         -1.6490     0.7500     2.5370 ha         1 EZA       0.158000
     74 H19          0.1630    -0.9580     0.0990 hn         1 EZA       0.358500
     75 H20          0.7680    -3.0430    -1.8900 h1         1 EZA       0.094700
     76 H21          2.4110    -1.3890    -2.9700 h1         1 EZA       0.074700
     77 H22          0.7000    -1.1090    -3.2850 h1         1 EZA       0.074700
     78 H23          0.1220     2.9090    -1.1690 h1         1 EZA       0.106700
     79 H24          2.4840     2.6260    -3.0630 hc         1 EZA       0.063200
     80 H25          1.2430     3.8790    -3.0360 hc         1 EZA       0.063200
     81 H26          3.6930     4.3920    -2.0130 hc         1 EZA       0.066700
     82 H27          2.7570     5.8160    -0.2040 hc         1 EZA       0.042367
     83 H28          1.7830     5.9710    -1.6650 hc         1 EZA       0.042367
     84 H29          1.2030     4.9950    -0.3190 hc         1 EZA       0.042367
     85 H30          3.4770     3.4780     0.5120 h1         1 EZA       0.062200
     86 H31          3.9590     2.3760    -0.7830 h1         1 EZA       0.062200
     87 H32          2.8440     2.4460     2.2320 h1         1 EZA       0.087700
     88 H33          1.3370    -0.0930     3.0260 hc         1 EZA       0.053033
     89 H34          2.4440     0.8450     4.0350 hc         1 EZA       0.053033
     90 H35          0.9100     1.5450     3.5230 hc         1 EZA       0.053033
     91 H36          3.2740    -0.3030     1.2400 hn         1 EZA       0.353500
     92 H37          6.0400    -0.6920     2.2720 h1         1 EZA       0.110700
     93 H38          7.4970     1.1710     1.4810 hc         1 EZA       0.062700
     94 H39          7.8790    -0.4060     0.8230 hc         1 EZA       0.062700
     95 H40          6.3330     1.7910    -0.6380 hc         1 EZA       0.047700
     96 H41          7.9700     1.2680    -0.9850 hc         1 EZA       0.047700
     97 H42          6.2770     0.1940    -2.5280 hc         1 EZA       0.046200
     98 H43          7.1740    -0.9910    -1.5880 hc         1 EZA       0.046200
     99 H44          4.3670     0.0740    -1.0300 h1         1 EZA       0.056700
    100 H45          4.7850    -1.5210    -1.5900 h1         1 EZA       0.056700
    101 H46          4.0310    -4.2350     0.6520 h1         1 EZA       0.086700
    102 H47          6.3460    -3.4730    -1.0070 hc         1 EZA       0.064200
    103 H48          5.6810    -5.0560    -0.6620 hc         1 EZA       0.064200
    104 H49          5.1080    -3.2450    -2.9930 hc         1 EZA       0.058700
    105 H50          4.9810    -4.9940    -2.9290 hc         1 EZA       0.058700
    106 H51          2.8160    -4.9060    -1.8830 h1         1 EZA       0.055700
    107 H52          2.7360    -3.4890    -2.9300 h1         1 EZA       0.055700
@<TRIPOS>BOND
     1     1     5 1   
     2     1    13 1   
     3     1    22 1   
     4     1    56 1   
     5     2     3 2   
     6     2     8 1   
     7     2    57 1   
     8     3    11 1   
     9     3    58 1   
    10     4    50 1   
    11     4    53 1   
    12     4    54 1   
    13     5    11 1   
    14     5    59 1   
    15     6     9 1   
    16     6    10 1   
    17     6    60 1   
    18     6    61 1   
    19     7    30 1   
    20     7    34 1   
    21     7    35 1   
    22     8    10 1   
    23     8    62 1   
    24     8    63 1   
    25     9    64 1   
    26     9    65 1   
    27     9    66 1   
    28    10    67 1   
    29    10    68 1   
    30    11    12 2   
    31    13    14 1   
    32    13    69 1   
    33    13    70 1   
    34    14    15 ar  
    35    14    21 ar  
    36    15    16 ar  
    37    15    71 1   
    38    16    17 1   
    39    16    18 ar  
    40    18    19 ar  
    41    18    72 1   
    42    19    20 1   
    43    19    21 ar  
    44    21    73 1   
    45    22    23 2   
    46    22    24 1   
    47    24    25 1   
    48    24    74 1   
    49    25    26 1   
    50    25    54 1   
    51    25    75 1   
    52    26    27 1   
    53    26    76 1   
    54    26    77 1   
    55    27    28 1   
    56    28    29 2   
    57    28    30 1   
    58    30    31 1   
    59    30    78 1   
    60    31    32 1   
    61    31    79 1   
    62    31    80 1   
    63    32    33 1   
    64    32    34 1   
    65    32    81 1   
    66    33    82 1   
    67    33    83 1   
    68    33    84 1   
    69    34    85 1   
    70    34    86 1   
    71    35    36 2   
    72    35    37 1   
    73    37    38 1   
    74    37    39 1   
    75    37    87 1   
    76    38    88 1   
    77    38    89 1   
    78    38    90 1   
    79    39    40 1   
    80    39    91 1   
    81    40    41 2   
    82    40    42 1   
    83    42    43 1   
    84    42    47 1   
    85    42    92 1   
    86    43    44 1   
    87    43    93 1   
    88    43    94 1   
    89    44    45 1   
    90    44    95 1   
    91    44    96 1   
    92    45    46 1   
    93    45    97 1   
    94    45    98 1   
    95    46    47 1   
    96    46    99 1   
    97    46   100 1   
    98    47    48 1   
    99    48    49 2   
   100    48    50 1   
   101    50    51 1   
   102    50   101 1   
   103    51    52 1   
   104    51   102 1   
   105    51   103 1   
   106    52    53 1   
   107    52   104 1   
   108    52   105 1   
   109    53   106 1   
   110    53   107 1   
   111    54    55 2   
@<TRIPOS>SUBSTRUCTURE
     1 EZA         1 TEMP              0 ****  ****    0 ROOT
