@<TRIPOS>MOLECULE
EZB
   35    38     1     0     0
SMALL
abcg2


@<TRIPOS>ATOM
      1 C01        -12.7520   156.0270   161.0180 c3         1 EZB      -0.058800
      2 C02        -13.6180   154.7970   161.0720 ca         1 EZB       0.016700
      3 C03        -13.0480   153.5600   161.3870 cp         1 EZB      -0.075000
      4 C04        -13.8340   152.3960   161.3790 ca         1 EZB      -0.058000
      5 C05        -15.1740   152.4360   161.0760 ca         1 EZB      -0.111000
      6 C06        -15.7850   153.6600   160.7790 ca         1 EZB       0.183400
      7 C07        -15.0070   154.8470   160.7840 ca         1 EZB      -0.197600
      8 C08        -15.6990   156.1080   160.4900 c          1 EZB       0.572600
      9 C10        -17.7030   154.7600   160.2160 cc         1 EZB       0.502800
     10 C13        -11.6050   153.4090   161.7230 cp         1 EZB      -0.019000
     11 C14        -10.7620   152.7610   160.8500 ca         1 EZB      -0.098000
     12 C15         -9.3930   152.5880   161.1430 ca         1 EZB      -0.103000
     13 C16         -8.8670   153.0620   162.3160 ca         1 EZB      -0.078000
     14 C17         -9.6970   153.7220   163.2510 ca         1 EZB       0.265000
     15 C18        -11.0840   153.8930   162.9590 ca         1 EZB      -0.071000
     16 C19        -11.8790   154.5340   163.9370 ca         1 EZB      -0.057000
     17 C20        -11.2990   154.9750   165.0960 ca         1 EZB      -0.167000
     18 C21         -9.9150   154.7730   165.2850 ca         1 EZB       0.351900
     19 N09        -17.0490   155.9490   160.2040 ns         1 EZB      -0.435400
     20 N11        -17.1410   153.6360   160.4880 nd         1 EZB      -0.625100
     21 N22         -9.1390   154.1720   164.4110 nb         1 EZB      -0.662000
     22 O12        -15.2200   157.2370   160.4830 o          1 EZB      -0.539000
     23 H011       -12.9990   156.7190   161.8250 hc         1 EZB       0.059700
     24 H013       -11.7020   155.7600   161.1030 hc         1 EZB       0.059700
     25 H012       -12.9040   156.5680   160.0870 hc         1 EZB       0.059700
     26 H041       -13.3660   151.4510   161.6220 ha         1 EZB       0.124000
     27 H051       -15.7780   151.5390   161.0680 ha         1 EZB       0.137000
     28 H101       -18.7600   154.8050   159.9780 h5         1 EZB       0.049800
     29 H141       -11.1550   152.3880   159.9120 ha         1 EZB       0.119000
     30 H151        -8.7580   152.0800   160.4280 ha         1 EZB       0.119000
     31 H161        -7.8180   152.9430   162.5560 ha         1 EZB       0.133000
     32 H191       -12.9380   154.6690   163.7640 ha         1 EZB       0.126000
     33 H201       -11.8790   155.4690   165.8630 ha         1 EZB       0.125000
     34 H211        -9.4430   155.1230   166.1970 h4         1 EZB       0.020100
     35 H091       -17.5640   156.7950   159.9930 hn         1 EZB       0.332500
@<TRIPOS>BOND
     1     1     2 1   
     2     1    23 1   
     3     1    24 1   
     4     1    25 1   
     5     2     3 ar  
     6     2     7 ar  
     7     3     4 ar  
     8     3    10 1   
     9     4     5 ar  
    10     4    26 1   
    11     5     6 ar  
    12     5    27 1   
    13     6     7 ar  
    14     6    20 1   
    15     7     8 1   
    16     8    19 1   
    17     8    22 2   
    18     9    19 1   
    19     9    20 2   
    20     9    28 1   
    21    10    11 ar  
    22    10    15 ar  
    23    11    12 ar  
    24    11    29 1   
    25    12    13 ar  
    26    12    30 1   
    27    13    14 ar  
    28    13    31 1   
    29    14    15 ar  
    30    14    21 ar  
    31    15    16 ar  
    32    16    17 ar  
    33    16    32 1   
    34    17    18 ar  
    35    17    33 1   
    36    18    21 ar  
    37    18    34 1   
    38    19    35 1   
@<TRIPOS>SUBSTRUCTURE
     1 EZB         1 TEMP              0 ****  ****    0 ROOT
