@<TRIPOS>MOLECULE
EZB
   35    38     1     0     0
SMALL
No Charge or Current Charge


@<TRIPOS>ATOM
      1 C01        -12.7450   156.0470   160.9480 c3         1 EZB      -0.058800
      2 C02        -13.6280   154.7950   161.0440 ca         1 EZB       0.016700
      3 C03        -13.0380   153.5490   161.4120 cp         1 EZB      -0.075000
      4 C04        -13.8430   152.3960   161.4590 ca         1 EZB      -0.058000
      5 C05        -15.2060   152.4600   161.1660 ca         1 EZB      -0.111000
      6 C06        -15.8130   153.6750   160.8190 ca         1 EZB       0.183400
      7 C07        -15.0300   154.8550   160.7590 ca         1 EZB      -0.197600
      8 C08        -15.7530   156.1220   160.3930 c          1 EZB       0.572600
      9 C10        -17.7440   154.7760   160.2230 cc         1 EZB       0.502800
     10 C13        -11.5900   153.4070   161.7500 cp         1 EZB      -0.019000
     11 C14        -10.7250   152.7950   160.8160 ca         1 EZB      -0.098000
     12 C15         -9.3590   152.6470   161.0900 ca         1 EZB      -0.103000
     13 C16         -8.8360   153.1060   162.3080 ca         1 EZB      -0.078000
     14 C17         -9.6630   153.7130   163.2710 ca         1 EZB       0.265000
     15 C18        -11.0500   153.8590   162.9880 ca         1 EZB      -0.071000
     16 C19        -11.8740   154.4580   163.9660 ca         1 EZB      -0.057000
     17 C20        -11.2920   154.8900   165.1660 ca         1 EZB      -0.167000
     18 C21         -9.9160   154.7130   165.3600 ca         1 EZB       0.351900
     19 N09        -17.0710   155.9600   160.1470 ns         1 EZB      -0.435400
     20 N11        -17.1920   153.6120   160.5510 nd         1 EZB      -0.625100
     21 N22         -9.1150   154.1360   164.4360 nb         1 EZB      -0.662000
     22 O12        -15.2550   157.2330   160.3150 o          1 EZB      -0.539000
     23 H011       -13.0360   156.7920   161.6970 hc         1 EZB       0.059700
     24 H013       -11.6810   155.8450   161.1020 hc         1 EZB       0.059700
     25 H012       -12.8200   156.5070   159.9560 hc         1 EZB       0.059700
     26 H041       -13.3990   151.4410   161.7330 ha         1 EZB       0.124000
     27 H051       -15.8040   151.5540   161.2120 ha         1 EZB       0.137000
     28 H101       -18.7970   154.8790   159.9880 h5         1 EZB       0.049800
     29 H141       -11.1240   152.4400   159.8690 ha         1 EZB       0.119000
     30 H151        -8.7040   152.1770   160.3580 ha         1 EZB       0.119000
     31 H161        -7.7750   152.9890   162.5140 ha         1 EZB       0.133000
     32 H191       -12.9420   154.5880   163.8090 ha         1 EZB       0.126000
     33 H201       -11.8950   155.3570   165.9400 ha         1 EZB       0.125000
     34 H211        -9.4380   155.0400   166.2830 h4         1 EZB       0.020100
     35 H091       -17.5810   156.7950   159.8960 hn         1 EZB       0.332500
@<TRIPOS>BOND
     1     1     2 1   
     2     1    23 1   
     3     1    24 1   
     4     1    25 1   
     5     2     3 ar  
     6     2     7 ar  
     7     3     4 ar  
     8     3    10 1   
     9     4     5 ar  
    10     4    26 1   
    11     5     6 ar  
    12     5    27 1   
    13     6     7 ar  
    14     6    20 1   
    15     7     8 1   
    16     8    19 1   
    17     8    22 2   
    18     9    19 1   
    19     9    20 2   
    20     9    28 1   
    21    10    11 ar  
    22    10    15 ar  
    23    11    12 ar  
    24    11    29 1   
    25    12    13 ar  
    26    12    30 1   
    27    13    14 ar  
    28    13    31 1   
    29    14    15 ar  
    30    14    21 ar  
    31    15    16 ar  
    32    16    17 ar  
    33    16    32 1   
    34    17    18 ar  
    35    17    33 1   
    36    18    21 ar  
    37    18    34 1   
    38    19    35 1   
@<TRIPOS>SUBSTRUCTURE
     1 EZB         1 TEMP              0 ****  ****    0 ROOT
