@<TRIPOS>MOLECULE
EZC
   49    51     1     0     0
SMALL
bcc


@<TRIPOS>ATOM
      1 C10        162.9480   170.3230   197.9110 c5         1 EZC      -0.076900
      2 C13        160.5060   170.0460   197.7380 c5         1 EZC      -0.080900
      3 C15        164.2660   172.7190   199.2110 c          1 EZC       0.609700
      4 C17        164.0920   173.3170   200.5410 ca         1 EZC      -0.263600
      5 C21        164.9210   173.2940   201.6620 ca         1 EZC       0.128400
      6 C22        163.3150   174.6880   202.8400 ca         1 EZC       0.229100
      7 C24        165.1200   176.3640   195.3210 c3         1 EZC      -0.088100
      8 C26        161.7930   176.7400   205.4940 c          1 EZC       0.942600
      9 C07        162.9600   172.9130   198.4320 c5         1 EZC      -0.136000
     10 C08        162.2100   171.5540   198.4640 c5         1 EZC      -0.053700
     11 C09        160.8830   171.5220   197.6990 c5         1 EZC      -0.076900
     12 C11        162.1700   173.9350   199.2770 c5         1 EZC      -0.036100
     13 C12        163.2380   173.4050   197.0080 c3         1 EZC      -0.053400
     14 C14        161.8420   169.3020   197.5630 c5         1 EZC      -0.080900
     15 C16        162.8940   174.0150   200.5840 ca         1 EZC       0.003700
     16 C18        164.0990   174.6610   196.8980 c3         1 EZC      -0.081400
     17 C19        162.4910   174.6990   201.7170 ca         1 EZC      -0.251000
     18 C23        164.5350   173.9700   202.8020 ca         1 EZC      -0.062600
     19 C25        161.8510   176.0570   204.1130 c3         1 EZC      -0.027600
     20 O05        160.7440   177.3850   205.6710 o          1 EZC      -0.806300
     21 O06        162.7540   176.5950   206.2610 o          1 EZC      -0.806300
     22 CL1        166.4000   172.4230   201.6430 cl         1 EZC      -0.081400
     23 CL2        165.5180   173.9650   204.2120 cl         1 EZC      -0.058400
     24 H1         163.6670   169.9180   198.6220 hc         1 EZC       0.046450
     25 H2         163.5080   170.5890   197.0120 hc         1 EZC       0.046450
     26 H3         159.7710   169.7780   196.9770 hc         1 EZC       0.036700
     27 H4         160.0610   169.8070   198.7070 hc         1 EZC       0.036700
     28 H5         163.3130   175.2450   194.9830 hc         1 EZC       0.032200
     29 H6         164.7720   174.2850   194.8920 hc         1 EZC       0.032200
     30 H7         165.2510   176.6530   194.2780 hc         1 EZC       0.030367
     31 H8         164.6450   177.2000   195.8380 hc         1 EZC       0.030367
     32 H9         166.1140   176.2330   195.7540 hc         1 EZC       0.030367
     33 H10        161.9740   171.3520   199.5180 hc         1 EZC       0.058700
     34 H11        161.0320   171.8390   196.6630 hc         1 EZC       0.046450
     35 H12        160.1170   172.1680   198.1310 hc         1 EZC       0.046450
     36 H13        162.1500   174.9210   198.8070 hc         1 EZC       0.060700
     37 H14        161.1280   173.6470   199.4240 hc         1 EZC       0.060700
     38 H15        162.2800   173.6030   196.5200 hc         1 EZC       0.041700
     39 H16        163.7090   172.6050   196.4310 hc         1 EZC       0.041700
     40 H17        161.8910   168.4210   198.2040 hc         1 EZC       0.036700
     41 H18        161.9590   168.9460   196.5390 hc         1 EZC       0.036700
     42 H19        165.0820   174.4970   197.3490 hc         1 EZC       0.048200
     43 H20        163.6430   175.4860   197.4540 hc         1 EZC       0.048200
     44 H21        161.5520   175.2360   201.7200 ha         1 EZC       0.152000
     45 H22        161.7920   176.8230   203.3310 h1         1 EZC       0.024200
     46 H23        160.9860   175.3970   203.9900 h1         1 EZC       0.024200
     47 O03        165.2550   172.1690   198.7850 o          1 EZC      -0.527100
     48 C20        164.2920   175.0940   195.4500 c3         1 EZC      -0.074400
     49 O04        163.0560   175.3100   203.9770 os         1 EZC      -0.239900
@<TRIPOS>BOND
     1     1    10 1   
     2     1    14 1   
     3     1    24 1   
     4     1    25 1   
     5     2    11 1   
     6     2    14 1   
     7     2    26 1   
     8     2    27 1   
     9     3     4 1   
    10     3     9 1   
    11     3    47 2   
    12     4     5 ar  
    13     4    15 ar  
    14     5    18 ar  
    15     5    22 1   
    16     6    17 ar  
    17     6    18 ar  
    18     6    49 1   
    19     7    30 1   
    20     7    31 1   
    21     7    32 1   
    22     7    48 1   
    23     8    19 1   
    24     8    20 1   
    25     8    21 1   
    26     9    10 1   
    27     9    12 1   
    28     9    13 1   
    29    10    11 1   
    30    10    33 1   
    31    11    34 1   
    32    11    35 1   
    33    12    15 1   
    34    12    36 1   
    35    12    37 1   
    36    13    16 1   
    37    13    38 1   
    38    13    39 1   
    39    14    40 1   
    40    14    41 1   
    41    15    17 ar  
    42    16    42 1   
    43    16    43 1   
    44    16    48 1   
    45    17    44 1   
    46    18    23 1   
    47    19    45 1   
    48    19    46 1   
    49    19    49 1   
    50    28    48 1   
    51    29    48 1   
@<TRIPOS>SUBSTRUCTURE
     1 EZC         1 TEMP              0 ****  ****    0 ROOT
