@<TRIPOS>MOLECULE
EZC
   49    51     1     0     0
SMALL
No Charge or Current Charge


@<TRIPOS>ATOM
      1 C10        162.9380   170.4560   198.0090 c5         1 EZC      -0.076900
      2 C13        160.4740   170.1670   197.9630 c5         1 EZC      -0.080900
      3 C15        164.3910   172.8410   199.1200 c          1 EZC       0.609700
      4 C17        164.1430   173.3670   200.4860 ca         1 EZC      -0.263600
      5 C21        164.9520   173.2210   201.6280 ca         1 EZC       0.220000
      6 C22        163.3090   174.5250   202.8960 ca         1 EZC       0.229100
      7 C24        165.2330   176.3080   194.9260 c3         1 EZC      -0.088100
      8 C26        161.4860   176.3650   205.7000 c          1 EZC       0.732000
      9 C07        163.0300   173.0400   198.3630 c5         1 EZC      -0.136000
     10 C08        162.1980   171.6910   198.5990 c5         1 EZC      -0.053700
     11 C09        160.9070   171.6410   197.7300 c5         1 EZC      -0.076900
     12 C11        162.2290   174.1260   199.2140 c5         1 EZC      -0.036100
     13 C12        163.2670   173.4750   196.8710 c3         1 EZC      -0.053400
     14 C14        161.8200   169.3720   198.0580 c5         1 EZC      -0.080900
     15 C16        162.9520   174.0640   200.5370 ca         1 EZC       0.003700
     16 C18        164.1620   174.7250   196.6490 c3         1 EZC      -0.081400
     17 C19        162.5180   174.6530   201.7310 ca         1 EZC      -0.233000
     18 C23        164.5270   173.8060   202.8420 ca         1 EZC       0.029000
     19 C25        161.6980   175.8360   204.2540 c3         1 EZC      -0.004400
     20 O05        160.4700   177.0120   205.9210 o          1 EZC      -0.701000
     21 O06        162.3240   176.1240   206.5600 o          1 EZC      -0.701000
     22 Cl1        166.4620   172.3040   201.5720 cl         1 EZC      -0.173000
     23 Cl2        165.5130   173.6420   204.3040 cl         1 EZC      -0.150000
     24 H1         163.8140   170.1590   198.5970 hc         1 EZC       0.046450
     25 H2         163.2760   170.6070   196.9780 hc         1 EZC       0.046450
     26 H3         159.8310   169.7990   197.1550 hc         1 EZC       0.036700
     27 H4         159.9020   170.0710   198.8930 hc         1 EZC       0.036700
     28 H5         163.3650   175.2440   194.6970 hc         1 EZC       0.032200
     29 H6         164.7930   174.2110   194.6360 hc         1 EZC       0.032200
     30 H7         165.3350   176.5120   193.8540 hc         1 EZC       0.030367
     31 H8         164.7940   177.1930   195.4030 hc         1 EZC       0.030367
     32 H9         166.2350   176.1500   195.3420 hc         1 EZC       0.030367
     33 H10        161.9740   171.5340   199.6630 hc         1 EZC       0.058700
     34 H11        161.0940   171.8140   196.6650 hc         1 EZC       0.046450
     35 H12        160.1330   172.3470   198.0480 hc         1 EZC       0.046450
     36 H13        162.3010   175.1330   198.7920 hc         1 EZC       0.060700
     37 H14        161.1590   173.9210   199.3190 hc         1 EZC       0.060700
     38 H15        162.3030   173.6810   196.3930 hc         1 EZC       0.041700
     39 H16        163.7170   172.6510   196.3070 hc         1 EZC       0.041700
     40 H17        161.8650   168.8000   198.9920 hc         1 EZC       0.036700
     41 H18        161.9290   168.6500   197.2400 hc         1 EZC       0.036700
     42 H19        165.1500   174.5620   197.0940 hc         1 EZC       0.048200
     43 H20        163.7270   175.5940   197.1540 hc         1 EZC       0.048200
     44 H21        161.5800   175.2000   201.7380 ha         1 EZC       0.134000
     45 H22        161.6980   176.7030   203.5810 h1         1 EZC       0.024200
     46 H23        160.8350   175.2060   204.0020 h1         1 EZC       0.024200
     47 O03        165.4670   172.4520   198.6820 o          1 EZC      -0.527100
     48 C20        164.3460   175.0690   195.1550 c3         1 EZC      -0.074400
     49 O04        162.9260   175.0860   204.1010 os         1 EZC      -0.263100
@<TRIPOS>BOND
     1     1    10 1   
     2     1    14 1   
     3     1    24 1   
     4     1    25 1   
     5     2    11 1   
     6     2    14 1   
     7     2    26 1   
     8     2    27 1   
     9     3     4 1   
    10     3     9 1   
    11     3    47 2   
    12     4     5 ar  
    13     4    15 ar  
    14     5    18 ar  
    15     5    22 1   
    16     6    17 ar  
    17     6    18 ar  
    18     6    49 1   
    19     7    30 1   
    20     7    31 1   
    21     7    32 1   
    22     7    48 1   
    23     8    19 1   
    24     8    20 1   
    25     8    21 1   
    26     9    10 1   
    27     9    12 1   
    28     9    13 1   
    29    10    11 1   
    30    10    33 1   
    31    11    34 1   
    32    11    35 1   
    33    12    15 1   
    34    12    36 1   
    35    12    37 1   
    36    13    16 1   
    37    13    38 1   
    38    13    39 1   
    39    14    40 1   
    40    14    41 1   
    41    15    17 ar  
    42    16    42 1   
    43    16    43 1   
    44    16    48 1   
    45    17    44 1   
    46    18    23 1   
    47    19    45 1   
    48    19    46 1   
    49    19    49 1   
    50    28    48 1   
    51    29    48 1   
@<TRIPOS>SUBSTRUCTURE
     1 EZC         1 TEMP              0 ****  ****    0 ROOT
