@<TRIPOS>MOLECULE
EZE
   30    31     1     0     0
SMALL
No Charge or Current Charge


@<TRIPOS>ATOM
      1 C4          -2.4190     1.2730    -0.5990 ca         1 EZE      -0.025000
      2 C5          -1.9980     0.0200    -0.1070 ca         1 EZE      -0.187800
      3 C6          -0.5440    -0.3200    -0.1150 ce         1 EZE      -0.139200
      4 C7           0.5000     0.5190     0.1400 cf         1 EZE      -0.163200
      5 C8           1.9520     0.2520     0.1400 ca         1 EZE       0.030200
      6 C10          4.2280     1.0750     0.4660 ca         1 EZE       0.175100
      7 C13          3.8650    -1.2350    -0.1600 ca         1 EZE       0.175100
      8 C15          2.4780    -1.0190    -0.1700 ca         1 EZE      -0.235500
      9 O1          -6.0590     1.0130    -0.1960 oh         1 EZE      -0.528100
     10 C2          -4.7380     0.6870    -0.1650 ca         1 EZE       0.184100
     11 C3          -3.7850     1.6020    -0.6260 ca         1 EZE      -0.183000
     12 C9           2.8430     1.2970     0.4570 ca         1 EZE      -0.235500
     13 O11          5.0800     2.0910     0.7740 oh         1 EZE      -0.530100
     14 C12          4.7400    -0.1900     0.1570 ca         1 EZE      -0.181000
     15 O14          4.3660    -2.4650    -0.4600 oh         1 EZE      -0.530100
     16 C16         -2.9710    -0.8900     0.3620 ca         1 EZE       0.199100
     17 O17         -2.6060    -2.0940     0.8810 oh         1 EZE      -0.537100
     18 C18         -4.3330    -0.5590     0.3290 ca         1 EZE      -0.252000
     19 H21         -1.6910     1.9890    -0.9760 ha         1 EZE       0.116000
     20 H22         -0.3240    -1.3570    -0.3680 ha         1 EZE       0.163000
     21 H23          0.2460     1.5490     0.3950 ha         1 EZE       0.176000
     22 H28          1.8160    -1.8410    -0.4190 ha         1 EZE       0.113500
     23 H19         -6.5700     0.2570     0.1630 ho         1 EZE       0.469000
     24 H20         -4.1020     2.5680    -1.0100 ha         1 EZE       0.133000
     25 H24          2.4530     2.2830     0.6980 ha         1 EZE       0.113500
     26 H25          4.5450     2.8920     0.9590 ho         1 EZE       0.466000
     27 H26          5.8120    -0.3600     0.1640 ha         1 EZE       0.145000
     28 H27          3.6130    -3.0620    -0.6550 ho         1 EZE       0.466000
     29 H29         -1.6380    -2.0730     1.0220 ho         1 EZE       0.472000
     30 H30         -5.0650    -1.2720     0.6970 ha         1 EZE       0.130000
@<TRIPOS>BOND
     1     1     2 ar  
     2     1    11 ar  
     3     1    19 1   
     4     2     3 1   
     5     2    16 ar  
     6     3     4 2   
     7     3    20 1   
     8     4     5 1   
     9     4    21 1   
    10     5     8 ar  
    11     5    12 ar  
    12     6    12 ar  
    13     6    13 1   
    14     6    14 ar  
    15     7     8 ar  
    16     7    14 ar  
    17     7    15 1   
    18     8    22 1   
    19     9    10 1   
    20     9    23 1   
    21    10    11 ar  
    22    10    18 ar  
    23    11    24 1   
    24    12    25 1   
    25    13    26 1   
    26    14    27 1   
    27    15    28 1   
    28    16    17 1   
    29    16    18 ar  
    30    17    29 1   
    31    18    30 1   
@<TRIPOS>SUBSTRUCTURE
     1 EZE         1 TEMP              0 ****  ****    0 ROOT
