@<TRIPOS>MOLECULE
EZE
   30    31     1     0     0
SMALL
bcc


@<TRIPOS>ATOM
      1 C4          -2.3860     1.3060    -0.4060 ca         1 EZE      -0.043000
      2 C5          -1.9420     0.0310    -0.0340 ca         1 EZE      -0.187800
      3 C6          -0.5220    -0.3120    -0.0060 ce         1 EZE      -0.089200
      4 C7           0.4770     0.5620     0.1740 cf         1 EZE      -0.113200
      5 C8           1.9090     0.2640     0.1460 ca         1 EZE       0.030200
      6 C10          4.1700     1.0930     0.3600 ca         1 EZE       0.175100
      7 C13          3.7860    -1.2290    -0.0980 ca         1 EZE       0.175100
      8 C15          2.4130    -1.0170    -0.0930 ca         1 EZE      -0.253500
      9 O1          -5.9750     1.0300    -0.2380 oh         1 EZE      -0.489100
     10 C2          -4.6800     0.6760    -0.1590 ca         1 EZE       0.184100
     11 C3          -3.7210     1.6430    -0.4690 ca         1 EZE      -0.201000
     12 C9           2.7950     1.3170     0.3710 ca         1 EZE      -0.253500
     13 O11          5.0590     2.0820     0.5740 oh         1 EZE      -0.491100
     14 C12          4.6740    -0.1800     0.1260 ca         1 EZE      -0.199000
     15 O14          4.3230    -2.4450    -0.3200 oh         1 EZE      -0.491100
     16 C16         -2.9280    -0.9200     0.2810 ca         1 EZE       0.199100
     17 O17         -2.6400    -2.1780     0.6670 oh         1 EZE      -0.498100
     18 C18         -4.2800    -0.5990     0.2140 ca         1 EZE      -0.270000
     19 H21         -1.6520     2.0540    -0.6800 ha         1 EZE       0.134000
     20 H22         -0.2650    -1.3540    -0.1770 ha         1 EZE       0.113000
     21 H23          0.2350     1.6020     0.3690 ha         1 EZE       0.126000
     22 H28          1.7450    -1.8520    -0.2720 ha         1 EZE       0.131500
     23 H19         -6.5450     0.2890    -0.0050 ho         1 EZE       0.430000
     24 H20         -4.0270     2.6340    -0.7760 ha         1 EZE       0.151000
     25 H24          2.4090     2.3130     0.5600 ha         1 EZE       0.131500
     26 H25          4.6010     2.9190     0.7080 ho         1 EZE       0.427000
     27 H26          5.7430    -0.3540     0.1170 ha         1 EZE       0.163000
     28 H27          3.6300    -3.0980    -0.4630 ho         1 EZE       0.427000
     29 H29         -1.7010    -2.2920     0.8410 ho         1 EZE       0.433000
     30 H30         -5.0130    -1.3580     0.4660 ha         1 EZE       0.148000
@<TRIPOS>BOND
     1     1     2 ar  
     2     1    11 ar  
     3     1    19 1   
     4     2     3 1   
     5     2    16 ar  
     6     3     4 2   
     7     3    20 1   
     8     4     5 1   
     9     4    21 1   
    10     5     8 ar  
    11     5    12 ar  
    12     6    12 ar  
    13     6    13 1   
    14     6    14 ar  
    15     7     8 ar  
    16     7    14 ar  
    17     7    15 1   
    18     8    22 1   
    19     9    10 1   
    20     9    23 1   
    21    10    11 ar  
    22    10    18 ar  
    23    11    24 1   
    24    12    25 1   
    25    13    26 1   
    26    14    27 1   
    27    15    28 1   
    28    16    17 1   
    29    16    18 ar  
    30    17    29 1   
    31    18    30 1   
@<TRIPOS>SUBSTRUCTURE
     1 EZE         1 TEMP              0 ****  ****    0 ROOT
