@<TRIPOS>MOLECULE
EZF
   70    74     1     0     0
SMALL
abcg2


@<TRIPOS>ATOM
      1 C10         -1.7210   -14.9130    29.8010 ca         1 EZF      -0.087000
      2 C13          6.7650   -10.5000    22.8110 ca         1 EZF      -0.102000
      3 C15          5.7170    -9.9630    20.7200 ca         1 EZF      -0.134600
      4 C17          5.1700    -8.7410    22.7140 ca         1 EZF       0.107000
      5 C20          4.1400   -12.0010    26.3860 c6         1 EZF      -0.085900
      6 C21          4.5020   -10.7010    25.6860 c6         1 EZF       0.161800
      7 C24          6.1490   -11.7010    27.8080 c6         1 EZF      -0.085900
      8 C26          4.6630   -12.0730    27.8180 c6         1 EZF       0.167000
      9 C28         -2.1750   -13.5950    29.8100 ca         1 EZF      -0.025000
     10 C01          6.0320   -11.4740    17.3910 c3         1 EZF       0.153900
     11 C05         -4.4360   -16.7260    31.7440 c3         1 EZF       0.195100
     12 C06         -3.3670   -13.3040    30.4780 ca         1 EZF      -0.087000
     13 C07         -4.0860   -14.3070    31.1040 ca         1 EZF      -0.102500
     14 C08         -3.6410   -15.6280    31.0870 ca         1 EZF      -0.075300
     15 C09         -2.4470   -15.9110    30.4320 ca         1 EZF      -0.102500
     16 C12          5.4980   -10.1560    19.2630 c          1 EZF       0.606700
     17 C14          6.6050   -10.7420    21.4600 ca         1 EZF      -0.059000
     18 C16          4.9990    -8.9590    21.3570 ca         1 EZF      -0.054000
     19 C18          6.0620    -9.4940    23.4730 ca         1 EZF      -0.045300
     20 C23          6.4370   -10.4090    27.0590 c6         1 EZF       0.161800
     21 C30          2.1580   -12.4950    29.7550 cc         1 EZF       0.492800
     22 C34          1.5540   -10.6910    28.2360 c          1 EZF       0.503500
     23 C36          0.2230   -11.2210    28.4220 cd         1 EZF       0.146500
     24 C37          0.0000   -12.3370    29.2350 cd         1 EZF       0.056400
     25 C38         -1.3690   -12.5620    29.1650 cc         1 EZF      -0.082000
     26 N04         -4.9430   -16.3190    33.0440 n8         1 EZF      -0.999200
     27 N22          5.9390   -10.4830    25.6980 n3         1 EZF      -0.717600
     28 N29          2.4980   -11.4480    28.9270 n          1 EZF      -0.341300
     29 N32          0.9820   -12.9700    29.9440 nd         1 EZF      -0.570100
     30 N35         -0.9020   -10.7770    27.8800 nc         1 EZF      -0.450800
     31 N39         -1.8350   -11.5950    28.3350 na         1 EZF       0.168800
     32 O02          6.1640   -11.1920    18.7840 os         1 EZF      -0.439100
     33 O03          4.7890    -9.4460    18.5930 o          1 EZF      -0.485000
     34 O25          4.4870   -13.4130    28.2360 oh         1 EZF      -0.653000
     35 H1          -0.7990   -15.1620    29.2930 ha         1 EZF       0.121000
     36 H2           7.4570   -11.1060    23.3820 ha         1 EZF       0.131000
     37 H3           3.0580   -12.1500    26.3480 hc         1 EZF       0.059700
     38 H4           4.5870   -12.8300    25.8300 hc         1 EZF       0.059700
     39 H5           3.9660    -9.8550    26.1410 h1         1 EZF       0.043450
     40 H6           4.1600   -10.7630    24.6510 h1         1 EZF       0.043450
     41 H7           6.6960   -12.5140    27.3230 hc         1 EZF       0.059700
     42 H8           6.5300   -11.6210    28.8310 hc         1 EZF       0.059700
     43 H9           6.6440   -12.3520    17.2070 h1         1 EZF       0.049367
     44 H10          4.9980   -11.6900    17.1250 h1         1 EZF       0.049367
     45 H11          6.3950   -10.6460    16.7830 h1         1 EZF       0.049367
     46 H12         -5.2950   -16.9620    31.1100 h1         1 EZF       0.035700
     47 H13         -3.8220   -17.6360    31.7680 h1         1 EZF       0.035700
     48 H14         -3.7280   -12.2840    30.5300 ha         1 EZF       0.121000
     49 H15         -5.0020   -14.0580    31.6260 ha         1 EZF       0.121500
     50 H16         -2.0740   -16.9280    30.4140 ha         1 EZF       0.121500
     51 H17          7.1780   -11.5300    20.9940 ha         1 EZF       0.134000
     52 H18          4.3010    -8.3510    20.7970 ha         1 EZF       0.151000
     53 H19          7.3780    -9.1290    25.0850 h1         1 EZF       0.050200
     54 H20          5.7980    -8.3990    25.3150 h1         1 EZF       0.050200
     55 H21          7.5180   -10.2500    27.0300 h1         1 EZF       0.043450
     56 H22          6.0130    -9.5460    27.6010 h1         1 EZF       0.043450
     57 H23          4.3750   -11.2060    29.7750 h1         1 EZF       0.065200
     58 H24          4.0050   -10.0930    28.4800 h1         1 EZF       0.065200
     59 H25          2.9860   -12.9210    30.3050 h5         1 EZF       0.041800
     60 H26         -3.1860   -10.9250    26.9260 h1         1 EZF       0.065700
     61 H27         -3.7140   -12.3490    27.8380 h1         1 EZF       0.065700
     62 H28         -3.7370   -10.7490    28.6020 h1         1 EZF       0.065700
     63 H29         -5.5630   -17.0350    33.4010 hn         1 EZF       0.397500
     64 H30         -4.1760   -16.2590    33.7020 hn         1 EZF       0.397500
     65 H33          4.9990   -13.5560    29.0410 ho         1 EZF       0.437000
     66 O33          1.8430    -9.7160    27.5700 o          1 EZF      -0.517000
     67 C27          3.9160   -11.1320    28.7860 c3         1 EZF       0.064000
     68 C31         -3.2030   -11.3930    27.9060 c3         1 EZF       0.061900
     69 C19          6.3060    -9.3000    24.9450 c3         1 EZF       0.206100
     70 CL1          4.2070    -7.4950    23.4480 cl         1 EZF      -0.193000
@<TRIPOS>BOND
     1     1     9 ar  
     2     1    15 ar  
     3     1    35 1   
     4     2    17 ar  
     5     2    19 ar  
     6     2    36 1   
     7     3    16 1   
     8     3    17 ar  
     9     3    18 ar  
    10     4    18 ar  
    11     4    19 ar  
    12     4    70 1   
    13     5     6 1   
    14     5     8 1   
    15     5    37 1   
    16     5    38 1   
    17     6    27 1   
    18     6    39 1   
    19     6    40 1   
    20     7     8 1   
    21     7    20 1   
    22     7    41 1   
    23     7    42 1   
    24     8    34 1   
    25     8    67 1   
    26     9    12 ar  
    27     9    25 1   
    28    10    32 1   
    29    10    43 1   
    30    10    44 1   
    31    10    45 1   
    32    11    14 1   
    33    11    26 1   
    34    11    46 1   
    35    11    47 1   
    36    12    13 ar  
    37    12    48 1   
    38    13    14 ar  
    39    13    49 1   
    40    14    15 ar  
    41    15    50 1   
    42    16    32 1   
    43    16    33 2   
    44    17    51 1   
    45    18    52 1   
    46    19    69 1   
    47    20    27 1   
    48    20    55 1   
    49    20    56 1   
    50    21    28 1   
    51    21    29 2   
    52    21    59 1   
    53    22    23 1   
    54    22    28 1   
    55    22    66 2   
    56    23    24 1   
    57    23    30 2   
    58    24    25 2   
    59    24    29 1   
    60    25    31 1   
    61    26    63 1   
    62    26    64 1   
    63    27    69 1   
    64    28    67 1   
    65    30    31 1   
    66    31    68 1   
    67    34    65 1   
    68    53    69 1   
    69    54    69 1   
    70    57    67 1   
    71    58    67 1   
    72    60    68 1   
    73    61    68 1   
    74    62    68 1   
@<TRIPOS>SUBSTRUCTURE
     1 EZF         1 TEMP              0 ****  ****    0 ROOT
