@<TRIPOS>MOLECULE
EZF
   70    74     1     0     0
SMALL
No Charge or Current Charge


@<TRIPOS>ATOM
      1 C10         -1.9300   -14.9200    30.0460 ca         1 EZF      -0.087000
      2 C13          7.1400   -10.3010    22.7390 ca         1 EZF      -0.102000
      3 C15          5.9720    -9.7760    20.6550 ca         1 EZF      -0.134600
      4 C17          5.2050    -8.8330    22.7840 ca         1 EZF       0.107000
      5 C20          4.1810   -12.2310    26.2590 c6         1 EZF      -0.085900
      6 C21          4.5610   -10.9020    25.5630 c6         1 EZF       0.161800
      7 C24          6.0630   -11.8580    27.8910 c6         1 EZF      -0.085900
      8 C26          4.5610   -12.2340    27.7650 c6         1 EZF       0.167000
      9 C28         -2.3880   -13.5960    29.8940 ca         1 EZF      -0.025000
     10 C01          6.6770   -10.9130    17.1420 c3         1 EZF       0.153900
     11 C05         -4.5350   -16.4060    32.4440 c3         1 EZF       0.195100
     12 C06         -3.5530   -13.1970    30.5790 ca         1 EZF      -0.087000
     13 C07         -4.2430   -14.1020    31.4040 ca         1 EZF      -0.102500
     14 C08         -3.7810   -15.4230    31.5560 ca         1 EZF      -0.075300
     15 C09         -2.6190   -15.8260    30.8700 ca         1 EZF      -0.102500
     16 C12          5.8070    -9.9100    19.1580 c          1 EZF       0.606700
     17 C14          7.0090   -10.4410    21.3470 ca         1 EZF      -0.059000
     18 C16          5.0740    -8.9730    21.3920 ca         1 EZF      -0.054000
     19 C18          6.2460    -9.4970    23.4720 ca         1 EZF      -0.045300
     20 C23          6.3970   -10.5350    27.1620 c6         1 EZF       0.161800
     21 C30          1.8110   -12.6090    29.6060 cc         1 EZF       0.492800
     22 C34          1.2900   -10.9120    27.8840 c          1 EZF       0.503500
     23 C36         -0.0930   -11.3850    28.0900 cd         1 EZF       0.146500
     24 C37         -0.3420   -12.4010    29.0060 cd         1 EZF       0.056400
     25 C38         -1.6820   -12.6500    29.0210 cc         1 EZF      -0.082000
     26 N04         -4.1330   -16.2800    33.8570 n8         1 EZF      -0.999200
     27 N22          6.0100   -10.5950    25.7280 n3         1 EZF      -0.717600
     28 N29          2.2160   -11.6080    28.6980 n          1 EZF      -0.341300
     29 N32          0.5620   -13.0560    29.8190 nd         1 EZF      -0.570100
     30 N35         -1.2020   -10.9450    27.5040 nc         1 EZF      -0.450800
     31 N39         -2.1890   -11.7290    28.0980 na         1 EZF       0.168800
     32 O02          6.7460   -10.7190    18.5670 os         1 EZF      -0.439100
     33 O03          4.9160    -9.3460    18.5350 o          1 EZF      -0.485000
     34 O25          4.3880   -13.5610    28.2790 oh         1 EZF      -0.653000
     35 H1          -1.0410   -15.2530    29.5150 ha         1 EZF       0.121000
     36 H2           7.9410   -10.8250    23.2560 ha         1 EZF       0.131000
     37 H3           3.1080   -12.4230    26.1310 hc         1 EZF       0.059700
     38 H4           4.6990   -13.0510    25.7420 hc         1 EZF       0.059700
     39 H5           3.9510   -10.0810    25.9670 h1         1 EZF       0.043450
     40 H6           4.3040   -10.9910    24.4980 h1         1 EZF       0.043450
     41 H7           6.6860   -12.6560    27.4650 hc         1 EZF       0.059700
     42 H8           6.3490   -11.7790    28.9490 hc         1 EZF       0.059700
     43 H9           7.4830   -11.5780    16.8080 h1         1 EZF       0.049367
     44 H10          5.7200   -11.3680    16.8540 h1         1 EZF       0.049367
     45 H11          6.7830    -9.9580    16.6110 h1         1 EZF       0.049367
     46 H12         -5.6160   -16.2230    32.3640 h1         1 EZF       0.035700
     47 H13         -4.3390   -17.4340    32.1090 h1         1 EZF       0.035700
     48 H14         -3.9200   -12.1780    30.4860 ha         1 EZF       0.121000
     49 H15         -5.1370   -13.7750    31.9310 ha         1 EZF       0.121500
     50 H16         -2.2510   -16.8450    30.9730 ha         1 EZF       0.121500
     51 H17          7.7190   -11.0710    20.8150 ha         1 EZF       0.134000
     52 H18          4.2640    -8.4530    20.8860 ha         1 EZF       0.151000
     53 H19          7.5010    -9.1980    25.1680 h1         1 EZF       0.050200
     54 H20          5.9070    -8.4990    25.3710 h1         1 EZF       0.050200
     55 H21          7.4780   -10.3510    27.2550 h1         1 EZF       0.043450
     56 H22          5.8900    -9.6970    27.6640 h1         1 EZF       0.043450
     57 H23          4.0620   -11.2370    29.6320 h1         1 EZF       0.065200
     58 H24          3.7730   -10.2380    28.2260 h1         1 EZF       0.065200
     59 H25          2.6240   -13.0330    30.1830 h5         1 EZF       0.041800
     60 H26         -3.6430   -11.2120    26.6580 h1         1 EZF       0.065700
     61 H27         -4.1180   -12.5180    27.7800 h1         1 EZF       0.065700
     62 H28         -4.0720   -10.8210    28.3500 h1         1 EZF       0.065700
     63 H29         -4.5940   -17.0200    34.4010 hn         1 EZF       0.397500
     64 H30         -3.1350   -16.5070    33.9340 hn         1 EZF       0.397500
     65 H33          4.9610   -14.1500    27.7440 ho         1 EZF       0.437000
     66 O33          1.6100   -10.0200    27.1050 o          1 EZF      -0.517000
     67 C27          3.6610   -11.2580    28.6100 c3         1 EZF       0.064000
     68 C31         -3.5920   -11.5590    27.6970 c3         1 EZF       0.061900
     69 C19          6.4330    -9.3810    24.9850 c3         1 EZF       0.206100
     70 Cl1          4.0320    -7.8210    23.6310 cl         1 EZF      -0.193000
@<TRIPOS>BOND
     1     1     9 ar  
     2     1    15 ar  
     3     1    35 1   
     4     2    17 ar  
     5     2    19 ar  
     6     2    36 1   
     7     3    16 1   
     8     3    17 ar  
     9     3    18 ar  
    10     4    18 ar  
    11     4    19 ar  
    12     4    70 1   
    13     5     6 1   
    14     5     8 1   
    15     5    37 1   
    16     5    38 1   
    17     6    27 1   
    18     6    39 1   
    19     6    40 1   
    20     7     8 1   
    21     7    20 1   
    22     7    41 1   
    23     7    42 1   
    24     8    34 1   
    25     8    67 1   
    26     9    12 ar  
    27     9    25 1   
    28    10    32 1   
    29    10    43 1   
    30    10    44 1   
    31    10    45 1   
    32    11    14 1   
    33    11    26 1   
    34    11    46 1   
    35    11    47 1   
    36    12    13 ar  
    37    12    48 1   
    38    13    14 ar  
    39    13    49 1   
    40    14    15 ar  
    41    15    50 1   
    42    16    32 1   
    43    16    33 2   
    44    17    51 1   
    45    18    52 1   
    46    19    69 1   
    47    20    27 1   
    48    20    55 1   
    49    20    56 1   
    50    21    28 1   
    51    21    29 2   
    52    21    59 1   
    53    22    23 1   
    54    22    28 1   
    55    22    66 2   
    56    23    24 1   
    57    23    30 2   
    58    24    25 2   
    59    24    29 1   
    60    25    31 1   
    61    26    63 1   
    62    26    64 1   
    63    27    69 1   
    64    28    67 1   
    65    30    31 1   
    66    31    68 1   
    67    34    65 1   
    68    53    69 1   
    69    54    69 1   
    70    57    67 1   
    71    58    67 1   
    72    60    68 1   
    73    61    68 1   
    74    62    68 1   
@<TRIPOS>SUBSTRUCTURE
     1 EZF         1 TEMP              0 ****  ****    0 ROOT
