@<TRIPOS>MOLECULE
EZG
   44    45     1     0     0
SMALL
abcg2


@<TRIPOS>ATOM
      1 CG          -4.2440     0.8290    -0.3910 cc         1 EZG       0.251300
      2 CB          -3.0980     0.0080    -0.8690 c3         1 EZG      -0.076700
      3 CA          -1.8250     0.2500    -0.0490 c3         1 EZG       0.096500
      4 C           -0.7530    -0.7390    -0.5000 c          1 EZG       0.553100
      5 O           -0.2010    -0.6240    -1.5830 o          1 EZG      -0.606100
      6 N           -1.3950     1.6260    -0.1860 n8         1 EZG      -0.981200
      7 CAG          2.1130     0.1200     0.9740 ca         1 EZG      -0.108000
      8 CAI          2.5160     1.3270     0.4310 ca         1 EZG      -0.043000
      9 CAU          3.1860     1.3260    -0.7840 ca         1 EZG      -0.175200
     10 NAY          3.6180     2.5890    -1.3570 no         1 EZG       0.694200
     11 OAF          3.3810     3.6040    -0.7440 o          1 EZG      -0.401000
     12 OAC          4.1920     2.5650    -2.4210 o          1 EZG      -0.401000
     13 CAJ          3.4610     0.1450    -1.4590 ca         1 EZG      -0.043000
     14 CAH          3.0410    -1.0480    -0.9030 ca         1 EZG      -0.108000
     15 CAT          2.3590    -1.0770     0.3100 ca         1 EZG      -0.060300
     16 CAW          1.8530    -2.3970     0.8470 c3         1 EZG       0.207600
     17 OAE          1.7860    -2.4140     2.2470 oh         1 EZG      -0.637000
     18 CAX          0.5180    -2.7510     0.1540 c3         1 EZG       0.070700
     19 CAM         -0.0340    -4.1160     0.5420 c3         1 EZG       0.154600
     20 OAD         -0.5550    -4.0770     1.8510 oh         1 EZG      -0.667000
     21 NAP         -0.4780    -1.7270     0.3750 ns         1 EZG      -0.510900
     22 CD2         -4.8700     1.8630    -1.0270 cd         1 EZG      -0.209000
     23 NE2         -5.8450     2.2850    -0.1680 na         1 EZG      -0.300500
     24 CE1         -5.7770     1.5130     0.9310 cd         1 EZG       0.391400
     25 ND1         -4.8210     0.6230     0.8330 nc         1 EZG      -0.686000
     26 H1          -3.3550    -1.0540    -0.8180 hc         1 EZG       0.056200
     27 H2          -2.8970     0.2310    -1.9200 hc         1 EZG       0.056200
     28 H3          -2.0620     0.0770     1.0050 h1         1 EZG       0.078700
     29 H4          -0.6130     1.8110     0.4290 hn         1 EZG       0.405500
     30 H5          -1.0620     1.7850    -1.1290 hn         1 EZG       0.405500
     31 H8           2.3130     2.2480     0.9570 ha         1 EZG       0.150500
     32 H9           3.9950     0.1450    -2.3980 ha         1 EZG       0.150500
     33 H10          3.2490    -1.9740    -1.4250 ha         1 EZG       0.124500
     34 H11          2.5700    -3.1750     0.5650 h1         1 EZG       0.081700
     35 H12          0.9580    -2.0260     2.5460 ho         1 EZG       0.453000
     36 H13          0.7250    -2.7940    -0.9170 h1         1 EZG       0.088700
     37 H14         -0.8110    -4.3780    -0.1840 h1         1 EZG       0.036200
     38 H15          0.7660    -4.8600     0.4400 h1         1 EZG       0.036200
     39 H16         -1.1870    -4.7940     1.9490 ho         1 EZG       0.455000
     40 H17         -1.0470    -1.7960     1.2050 hn         1 EZG       0.330500
     41 H18         -4.7080     2.3190    -1.9890 h4         1 EZG       0.159000
     42 H19         -6.4990     3.0340    -0.3300 hn         1 EZG       0.353000
     43 H20         -6.4440     1.6400     1.7700 h5         1 EZG       0.053100
     44 H7           1.6020     0.1300     1.9270 ha         1 EZG       0.124500
@<TRIPOS>BOND
     1     1     2 1   
     2     1    22 2   
     3     1    25 1   
     4     2     3 1   
     5     2    26 1   
     6     2    27 1   
     7     3     4 1   
     8     3     6 1   
     9     3    28 1   
    10     4     5 2   
    11     4    21 1   
    12     6    29 1   
    13     6    30 1   
    14     7     8 ar  
    15     7    15 ar  
    16     7    44 1   
    17     8     9 ar  
    18     8    31 1   
    19     9    10 1   
    20     9    13 ar  
    21    10    11 1   
    22    10    12 1   
    23    13    14 ar  
    24    13    32 1   
    25    14    15 ar  
    26    14    33 1   
    27    15    16 1   
    28    16    17 1   
    29    16    18 1   
    30    16    34 1   
    31    17    35 1   
    32    18    19 1   
    33    18    21 1   
    34    18    36 1   
    35    19    20 1   
    36    19    37 1   
    37    19    38 1   
    38    20    39 1   
    39    21    40 1   
    40    22    23 1   
    41    22    41 1   
    42    23    24 1   
    43    23    42 1   
    44    24    25 2   
    45    24    43 1   
@<TRIPOS>SUBSTRUCTURE
     1 EZG         1 TEMP              0 ****  ****    0 ROOT
