@<TRIPOS>MOLECULE
EZG
   44    45     1     0     0
SMALL
No Charge or Current Charge


@<TRIPOS>ATOM
      1 CG          -4.4980     0.7910    -0.2920 cc         1 EZG       0.251300
      2 CB          -3.3510     0.0480    -0.9230 c3         1 EZG      -0.076700
      3 CA          -1.9720     0.3860    -0.3060 c3         1 EZG       0.096500
      4 C           -0.9110    -0.6930    -0.7260 c          1 EZG       0.553100
      5 O           -0.4100    -0.7270    -1.8440 o          1 EZG      -0.606100
      6 N           -1.5850     1.8020    -0.6310 n8         1 EZG      -0.981200
      7 CAG          2.1250     0.2300     0.8270 ca         1 EZG      -0.108000
      8 CAI          2.7260     1.3940     0.3180 ca         1 EZG      -0.043000
      9 CAU          3.6680     1.3110    -0.7340 ca         1 EZG      -0.175200
     10 NAY          4.3120     2.5490    -1.2800 no         1 EZG       0.694200
     11 OAF          3.9950     3.6400    -0.7880 o          1 EZG      -0.401000
     12 OAC          5.1330     2.4260    -2.2000 o          1 EZG      -0.401000
     13 CAJ          3.9920     0.0390    -1.2620 ca         1 EZG      -0.043000
     14 CAH          3.3860    -1.1200    -0.7470 ca         1 EZG      -0.108000
     15 CAT          2.4500    -1.0390     0.3020 ca         1 EZG      -0.060300
     16 CAW          1.7980    -2.3200     0.8370 c3         1 EZG       0.207600
     17 OAE          1.5820    -2.2370     2.2540 oh         1 EZG      -0.637000
     18 CAX          0.4530    -2.6590     0.1220 c3         1 EZG       0.070700
     19 CAM         -0.1400    -4.0220     0.5740 c3         1 EZG       0.154600
     20 OAD         -0.5090    -3.9820     1.9660 oh         1 EZG      -0.667000
     21 NAP         -0.5500    -1.5820     0.2660 ns         1 EZG      -0.510900
     22 CD2         -5.1540     1.8880    -0.7780 cd         1 EZG      -0.209000
     23 NE2         -6.1350     2.1640     0.1630 na         1 EZG      -0.300500
     24 CE1         -6.0290     1.2190     1.1660 cd         1 EZG       0.391400
     25 ND1         -5.0400     0.3770     0.8940 nc         1 EZG      -0.686000
     26 H1          -3.5300    -1.0290    -0.8160 hc         1 EZG       0.056200
     27 H2          -3.3280     0.2440    -2.0020 hc         1 EZG       0.056200
     28 H3          -2.0740     0.3130     0.7860 h1         1 EZG       0.078700
     29 H4          -0.6890     2.0210    -0.1780 hn         1 EZG       0.405500
     30 H5          -1.3550     1.8570    -1.6310 hn         1 EZG       0.405500
     31 H8           2.4540     2.3570     0.7480 ha         1 EZG       0.150500
     32 H9           4.7110    -0.0610    -2.0730 ha         1 EZG       0.150500
     33 H10          3.6480    -2.0880    -1.1700 ha         1 EZG       0.124500
     34 H11          2.4870    -3.1520     0.6320 h1         1 EZG       0.081700
     35 H12          0.8250    -2.8560     2.4210 ho         1 EZG       0.453000
     36 H13          0.6870    -2.7680    -0.9450 h1         1 EZG       0.088700
     37 H14         -1.0190    -4.2460    -0.0450 h1         1 EZG       0.036200
     38 H15          0.5990    -4.8140     0.3970 h1         1 EZG       0.036200
     39 H16         -1.0200    -4.8040     2.1520 ho         1 EZG       0.455000
     40 H17         -1.0150    -1.4890     1.1610 hn         1 EZG       0.330500
     41 H18         -4.9980     2.4640    -1.6830 h4         1 EZG       0.159000
     42 H19         -6.8160     2.9140     0.1390 hn         1 EZG       0.353000
     43 H20         -6.6850     1.2050     2.0290 h5         1 EZG       0.053100
     44 H7           1.4010     0.3180     1.6340 ha         1 EZG       0.124500
@<TRIPOS>BOND
     1     1     2 1   
     2     1    22 2   
     3     1    25 1   
     4     2     3 1   
     5     2    26 1   
     6     2    27 1   
     7     3     4 1   
     8     3     6 1   
     9     3    28 1   
    10     4     5 2   
    11     4    21 1   
    12     6    29 1   
    13     6    30 1   
    14     7     8 ar  
    15     7    15 ar  
    16     7    44 1   
    17     8     9 ar  
    18     8    31 1   
    19     9    10 1   
    20     9    13 ar  
    21    10    11 1   
    22    10    12 1   
    23    13    14 ar  
    24    13    32 1   
    25    14    15 ar  
    26    14    33 1   
    27    15    16 1   
    28    16    17 1   
    29    16    18 1   
    30    16    34 1   
    31    17    35 1   
    32    18    19 1   
    33    18    21 1   
    34    18    36 1   
    35    19    20 1   
    36    19    37 1   
    37    19    38 1   
    38    20    39 1   
    39    21    40 1   
    40    22    23 1   
    41    22    41 1   
    42    23    24 1   
    43    23    42 1   
    44    24    25 2   
    45    24    43 1   
@<TRIPOS>SUBSTRUCTURE
     1 EZG         1 TEMP              0 ****  ****    0 ROOT
