@<TRIPOS>MOLECULE
EZH
   30    31     1     0     0
SMALL
No Charge or Current Charge


@<TRIPOS>ATOM
      1 C4          -1.2560     0.2300    -1.0640 ca         1 EZH      -0.015000
      2 C5          -1.5520    -0.9690    -0.3840 ca         1 EZH      -0.136800
      3 C6          -0.5630    -2.0880    -0.3820 ce         1 EZH      -0.108200
      4 C7           0.7960    -2.0580    -0.2500 cf         1 EZH      -0.180200
      5 C8           1.7130    -0.9450     0.0570 ca         1 EZH       0.026200
      6 C10          3.9450     0.0300    -0.0890 ca         1 EZH       0.173600
      7 C13          2.1980     1.2030     1.1080 ca         1 EZH       0.173600
      8 C15          1.3010     0.1660     0.8180 ca         1 EZH      -0.205000
      9 O1          -4.3270     2.1500    -0.4570 oh         1 EZH      -0.532100
     10 C2          -3.4220     1.1360    -0.4380 ca         1 EZH       0.185100
     11 C3          -2.1890     1.2820    -1.0850 ca         1 EZH      -0.243000
     12 C9           3.0490    -1.0110    -0.3800 ca         1 EZH      -0.205000
     13 O11          5.2330    -0.0320    -0.5230 oh         1 EZH      -0.533600
     14 C12          3.5210     1.1390     0.6520 ca         1 EZH      -0.247000
     15 O14          1.7810     2.2700     1.8430 oh         1 EZH      -0.533600
     16 C16         -2.8050    -1.1080     0.2510 ca         1 EZH       0.187100
     17 O17         -3.1270    -2.2620     0.9020 oh         1 EZH      -0.529100
     18 C18         -3.7330    -0.0550     0.2260 ca         1 EZH      -0.251000
     19 H21         -0.3050     0.3450    -1.5780 ha         1 EZH       0.122000
     20 H22         -1.0200    -3.0660    -0.5460 ha         1 EZH       0.182000
     21 H23          1.3060    -3.0190    -0.3420 ha         1 EZH       0.175000
     22 H28          0.2880     0.2220     1.2030 ha         1 EZH       0.127000
     23 H19         -3.9390     2.8940    -0.9650 ho         1 EZH       0.468000
     24 H20         -1.9440     2.2020    -1.6100 ha         1 EZH       0.118000
     25 H24          3.3830    -1.8700    -0.9570 ha         1 EZH       0.127000
     26 H25          5.3510    -0.8690    -1.0190 ho         1 EZH       0.465000
     27 H26          4.2230     1.9380     0.8730 ha         1 EZH       0.127000
     28 H27          2.5390     2.8840     1.9460 ho         1 EZH       0.465000
     29 H29         -4.0260    -2.1580     1.2800 ho         1 EZH       0.467000
     30 H30         -4.6960    -0.1560     0.7190 ha         1 EZH       0.129000
@<TRIPOS>BOND
     1     1     2 ar  
     2     1    11 ar  
     3     1    19 1   
     4     2     3 1   
     5     2    16 ar  
     6     3     4 2   
     7     3    20 1   
     8     4     5 1   
     9     4    21 1   
    10     5     8 ar  
    11     5    12 ar  
    12     6    12 ar  
    13     6    13 1   
    14     6    14 ar  
    15     7     8 ar  
    16     7    14 ar  
    17     7    15 1   
    18     8    22 1   
    19     9    10 1   
    20     9    23 1   
    21    10    11 ar  
    22    10    18 ar  
    23    11    24 1   
    24    12    25 1   
    25    13    26 1   
    26    14    27 1   
    27    15    28 1   
    28    16    17 1   
    29    16    18 ar  
    30    17    29 1   
    31    18    30 1   
@<TRIPOS>SUBSTRUCTURE
     1 EZH         1 TEMP              0 ****  ****    0 ROOT
