@<TRIPOS>MOLECULE
EZH
   30    31     1     0     0
SMALL
bcc


@<TRIPOS>ATOM
      1 C4          -1.2250     0.1680    -1.1600 ca         1 EZH      -0.033000
      2 C5          -1.4850    -0.9710    -0.4020 ca         1 EZH      -0.136800
      3 C6          -0.5640    -2.1140    -0.3730 ce         1 EZH      -0.058200
      4 C7           0.7670    -2.0940    -0.2270 cf         1 EZH      -0.130200
      5 C8           1.6460    -0.9580     0.0860 ca         1 EZH       0.026200
      6 C10          3.8200     0.0680    -0.1360 ca         1 EZH       0.173600
      7 C13          2.1300     1.1160     1.2080 ca         1 EZH       0.173600
      8 C15          1.2430     0.0840     0.9160 ca         1 EZH      -0.223000
      9 O1          -4.2090     2.1620    -0.5230 oh         1 EZH      -0.493100
     10 C2          -3.3010     1.1690    -0.5120 ca         1 EZH       0.185100
     11 C3          -2.1070     1.2320    -1.2270 ca         1 EZH      -0.261000
     12 C9           2.9450    -0.9720    -0.4280 ca         1 EZH      -0.223000
     13 O11          5.0800     0.1060    -0.6140 oh         1 EZH      -0.494600
     14 C12          3.4180     1.1190     0.6820 ca         1 EZH      -0.265000
     15 O14          1.6920     2.0970     2.0220 oh         1 EZH      -0.494600
     16 C16         -2.7000    -1.0180     0.2950 ca         1 EZH       0.187100
     17 O17         -2.9470    -2.1230     1.0230 oh         1 EZH      -0.490100
     18 C18         -3.5970     0.0420     0.2480 ca         1 EZH      -0.269000
     19 H21         -0.3040     0.2160    -1.7280 ha         1 EZH       0.140000
     20 H22         -1.0120    -3.0900    -0.5310 ha         1 EZH       0.132000
     21 H23          1.2810    -3.0420    -0.3520 ha         1 EZH       0.125000
     22 H28          0.2510     0.0980     1.3460 ha         1 EZH       0.145000
     23 H19         -3.8990     2.8940    -1.0680 ho         1 EZH       0.429000
     24 H20         -1.8730     2.0950    -1.8390 ha         1 EZH       0.136000
     25 H24          3.2670    -1.7960    -1.0560 ha         1 EZH       0.145000
     26 H25          5.2490    -0.6620    -1.1700 ho         1 EZH       0.426000
     27 H26          4.1120     1.9200     0.9120 ha         1 EZH       0.145000
     28 H27          2.3890     2.7460     2.1730 ho         1 EZH       0.426000
     29 H29         -3.8160    -2.0680     1.4380 ho         1 EZH       0.428000
     30 H30         -4.5270     0.0020     0.8060 ha         1 EZH       0.147000
@<TRIPOS>BOND
     1     1     2 ar  
     2     1    11 ar  
     3     1    19 1   
     4     2     3 1   
     5     2    16 ar  
     6     3     4 2   
     7     3    20 1   
     8     4     5 1   
     9     4    21 1   
    10     5     8 ar  
    11     5    12 ar  
    12     6    12 ar  
    13     6    13 1   
    14     6    14 ar  
    15     7     8 ar  
    16     7    14 ar  
    17     7    15 1   
    18     8    22 1   
    19     9    10 1   
    20     9    23 1   
    21    10    11 ar  
    22    10    18 ar  
    23    11    24 1   
    24    12    25 1   
    25    13    26 1   
    26    14    27 1   
    27    15    28 1   
    28    16    17 1   
    29    16    18 ar  
    30    17    29 1   
    31    18    30 1   
@<TRIPOS>SUBSTRUCTURE
     1 EZH         1 TEMP              0 ****  ****    0 ROOT
