@<TRIPOS>MOLECULE
EZJ
   61    65     1     0     0
SMALL
abcg2


@<TRIPOS>ATOM
      1 N           12.5880    13.5150   -19.3180 n3         1 EZJ      -0.682600
      2 C           11.1930    15.5080   -23.8160 c3         1 EZJ       0.170600
      3 O           10.0180    15.2020   -23.0680 oh         1 EZJ      -0.707000
      4 C25         14.9510    13.8730   -26.0100 ca         1 EZJ       0.123500
      5 C24         15.7190    15.0280   -26.0090 ca         1 EZJ      -0.091000
      6 C23         15.3540    16.0420   -25.1320 ca         1 EZJ       0.123500
      7 CL          16.3060    17.5090   -25.1010 cl         1 EZJ      -0.199500
      8 C22         14.2660    15.9240   -24.2830 ca         1 EZJ      -0.088500
      9 C26         13.8570    13.7200   -25.1690 ca         1 EZJ      -0.088500
     10 C21         13.5130    14.7510   -24.3020 ca         1 EZJ      -0.111300
     11 C1          12.3220    14.5910   -23.3780 c3         1 EZJ       0.212600
     12 O1          12.6370    14.9180   -22.0270 os         1 EZJ      -0.434000
     13 C2          13.7310    14.2070   -21.4320 c6         1 EZJ       0.178300
     14 C14         13.2610    13.0380   -20.5320 c6         1 EZJ       0.217800
     15 C15         12.4060    12.0890   -21.3430 ca         1 EZJ      -0.104300
     16 C20         13.0290    11.1270   -22.1360 ca         1 EZJ      -0.093500
     17 C19         12.2870    10.3140   -22.9860 ca         1 EZJ      -0.119000
     18 C18         10.9030    10.4470   -23.0430 ca         1 EZJ      -0.111000
     19 C17         10.2710    11.3930   -22.2410 ca         1 EZJ      -0.119000
     20 C16         11.0180    12.2090   -21.4000 ca         1 EZJ      -0.093500
     21 C5          13.3870    14.4960   -18.5730 c6         1 EZJ       0.164800
     22 C4          13.7830    15.6890   -19.4250 c6         1 EZJ      -0.071400
     23 C3          14.5590    15.2100   -20.6450 c6         1 EZJ      -0.079400
     24 C6          12.2510    12.3980   -18.4360 c3         1 EZJ       0.148500
     25 C7          11.3150    12.7970   -17.3410 cc         1 EZJ       0.412800
     26 N2          11.6360    12.6200   -16.0240 na         1 EZJ      -0.327600
     27 C13         10.5710    13.0610   -15.2680 ca         1 EZJ      -0.077200
     28 C8           9.6200    13.5030   -16.2150 ca         1 EZJ       0.066400
     29 N1          10.1180    13.3200   -17.4980 nd         1 EZJ      -0.548100
     30 C12         10.3430    13.1190   -13.8970 ca         1 EZJ      -0.118000
     31 C11          9.1210    13.6360   -13.4870 ca         1 EZJ      -0.094000
     32 C10          8.1630    14.0790   -14.4160 ca         1 EZJ      -0.138000
     33 C9           8.3970    14.0190   -15.7830 ca         1 EZJ      -0.046000
     34 H2          11.4950    16.5490   -23.6590 h1         1 EZJ       0.030700
     35 H3          11.0230    15.3550   -24.8870 h1         1 EZJ       0.030700
     36 H4           9.3270    15.8210   -23.3330 ho         1 EZJ       0.502000
     37 H6          14.0160    16.7240   -23.6020 ha         1 EZJ       0.141500
     38 H7          13.2870    12.8010   -25.1780 ha         1 EZJ       0.141500
     39 H8          11.9720    13.5590   -23.4450 h1         1 EZJ       0.068700
     40 H9          14.3450    13.7640   -22.2170 h1         1 EZJ       0.043700
     41 H10         14.1880    12.5020   -20.2600 h1         1 EZJ       0.022700
     42 H11         14.1070    11.0230   -22.0980 ha         1 EZJ       0.130500
     43 H12         12.7890     9.5780   -23.6030 ha         1 EZJ       0.115000
     44 H13         10.3210     9.8150   -23.7030 ha         1 EZJ       0.111000
     45 H14          9.1950    11.5040   -22.2790 ha         1 EZJ       0.115000
     46 H15         10.5280    12.9580   -20.7930 ha         1 EZJ       0.130500
     47 H16         14.3000    14.0170   -18.1760 h1         1 EZJ       0.031200
     48 H17         12.7980    14.8230   -17.7150 h1         1 EZJ       0.031200
     49 H18         14.3880    16.3710   -18.8250 hc         1 EZJ       0.058700
     50 H19         12.8890    16.2330   -19.7390 hc         1 EZJ       0.058700
     51 H20         15.4820    14.7190   -20.3220 hc         1 EZJ       0.047200
     52 H21         14.8370    16.0380   -21.2990 hc         1 EZJ       0.047200
     53 H22         11.7740    11.6140   -19.0220 h1         1 EZJ       0.050700
     54 H23         13.1550    11.9580   -17.9860 h1         1 EZJ       0.050700
     55 H24         12.5070    12.2470   -15.6800 hn         1 EZJ       0.352000
     56 H26         11.0810    12.7780   -13.1830 ha         1 EZJ       0.114000
     57 H27          8.9010    13.7000   -12.4290 ha         1 EZJ       0.111000
     58 H28          7.2230    14.4740   -14.0530 ha         1 EZJ       0.113000
     59 H29          7.6570    14.3610   -16.4960 ha         1 EZJ       0.129000
     60 H5          16.5730    15.1340   -26.6620 ha         1 EZJ       0.146000
     61 CL1         15.3880    12.5680   -27.0880 cl         1 EZJ      -0.199500
@<TRIPOS>BOND
     1     1    14 1   
     2     1    21 1   
     3     1    24 1   
     4     2     3 1   
     5     2    11 1   
     6     2    34 1   
     7     2    35 1   
     8     3    36 1   
     9     4     5 ar  
    10     4     9 ar  
    11     4    61 1   
    12     5     6 ar  
    13     5    60 1   
    14     6     7 1   
    15     6     8 ar  
    16     8    10 ar  
    17     8    37 1   
    18     9    10 ar  
    19     9    38 1   
    20    10    11 1   
    21    11    12 1   
    22    11    39 1   
    23    12    13 1   
    24    13    14 1   
    25    13    23 1   
    26    13    40 1   
    27    14    15 1   
    28    14    41 1   
    29    15    16 ar  
    30    15    20 ar  
    31    16    17 ar  
    32    16    42 1   
    33    17    18 ar  
    34    17    43 1   
    35    18    19 ar  
    36    18    44 1   
    37    19    20 ar  
    38    19    45 1   
    39    20    46 1   
    40    21    22 1   
    41    21    47 1   
    42    21    48 1   
    43    22    23 1   
    44    22    49 1   
    45    22    50 1   
    46    23    51 1   
    47    23    52 1   
    48    24    25 1   
    49    24    53 1   
    50    24    54 1   
    51    25    26 1   
    52    25    29 2   
    53    26    27 1   
    54    26    55 1   
    55    27    28 ar  
    56    27    30 ar  
    57    28    29 1   
    58    28    33 ar  
    59    30    31 ar  
    60    30    56 1   
    61    31    32 ar  
    62    31    57 1   
    63    32    33 ar  
    64    32    58 1   
    65    33    59 1   
@<TRIPOS>SUBSTRUCTURE
     1 EZJ         1 TEMP              0 ****  ****    0 ROOT
