@<TRIPOS>MOLECULE
EZJ
   61    65     1     0     0
SMALL
No Charge or Current Charge


@<TRIPOS>ATOM
      1 N           12.4880    13.5670   -19.3270 n3         1 EZJ      -0.682600
      2 C           11.2380    15.8040   -23.8730 c3         1 EZJ       0.170600
      3 O           10.0200    15.6660   -23.1130 oh         1 EZJ      -0.707000
      4 C25         14.9570    13.5420   -25.9220 ca         1 EZJ       0.123500
      5 C24         15.7420    14.6890   -26.1160 ca         1 EZJ      -0.091000
      6 C23         15.4210    15.8750   -25.4380 ca         1 EZJ       0.123500
      7 Cl          16.4070    17.3120   -25.6700 cl         1 EZJ      -0.199500
      8 C22         14.3170    15.9170   -24.5690 ca         1 EZJ      -0.088500
      9 C26         13.8520    13.5790   -25.0550 ca         1 EZJ      -0.088500
     10 C21         13.5210    14.7680   -24.3740 ca         1 EZJ      -0.111300
     11 C1          12.3300    14.7930   -23.4140 c3         1 EZJ       0.212600
     12 O1          12.7880    15.1800   -22.0930 os         1 EZJ      -0.434000
     13 C2          13.7890    14.3620   -21.4200 c6         1 EZJ       0.178300
     14 C14         13.2120    13.1500   -20.5840 c6         1 EZJ       0.217800
     15 C15         12.4230    12.1750   -21.4830 ca         1 EZJ      -0.104300
     16 C20         13.1170    11.1840   -22.2060 ca         1 EZJ      -0.093500
     17 C19         12.4230    10.3020   -23.0520 ca         1 EZJ      -0.119000
     18 C18         11.0280    10.4020   -23.1820 ca         1 EZJ      -0.111000
     19 C17         10.3270    11.3870   -22.4670 ca         1 EZJ      -0.119000
     20 C16         11.0200    12.2700   -21.6220 ca         1 EZJ      -0.093500
     21 C5          13.3110    14.4940   -18.4950 c6         1 EZJ       0.164800
     22 C4          13.8110    15.7240   -19.2820 c6         1 EZJ      -0.071400
     23 C3          14.6340    15.2800   -20.5100 c6         1 EZJ      -0.079400
     24 C6          11.9980    12.4000   -18.5150 c3         1 EZJ       0.148500
     25 C7          11.1250    12.7360   -17.3130 cc         1 EZJ       0.412800
     26 N2          11.6080    12.8340   -16.0060 na         1 EZJ      -0.327600
     27 C13         10.5470    13.1300   -15.2100 ca         1 EZJ      -0.077200
     28 C8           9.4520    13.2000   -16.0220 ca         1 EZJ       0.066400
     29 N1           9.7900    12.9500   -17.3490 nd         1 EZJ      -0.548100
     30 C12         10.4860    13.3390   -13.8270 ca         1 EZJ      -0.118000
     31 C11          9.2240    13.6350   -13.2690 ca         1 EZJ      -0.094000
     32 C10          8.0790    13.7100   -14.0990 ca         1 EZJ      -0.138000
     33 C9           8.1870    13.4910   -15.4910 ca         1 EZJ      -0.046000
     34 H2          11.6330    16.8250   -23.7780 h1         1 EZJ       0.030700
     35 H3          11.0320    15.6310   -24.9380 h1         1 EZJ       0.030700
     36 H4           9.4170    16.3880   -23.4040 ho         1 EZJ       0.502000
     37 H6          14.0880    16.8400   -24.0420 ha         1 EZJ       0.141500
     38 H7          13.2570    12.6800   -24.9130 ha         1 EZJ       0.141500
     39 H8          11.8720    13.8000   -23.4070 h1         1 EZJ       0.068700
     40 H9          14.4710    13.9520   -22.1770 h1         1 EZJ       0.043700
     41 H10         14.0970    12.5850   -20.2540 h1         1 EZJ       0.022700
     42 H11         14.1990    11.0990   -22.1180 ha         1 EZJ       0.130500
     43 H12         12.9670     9.5410   -23.6080 ha         1 EZJ       0.115000
     44 H13         10.4910     9.7200   -23.8380 ha         1 EZJ       0.111000
     45 H14          9.2470    11.4700   -22.5710 ha         1 EZJ       0.115000
     46 H15         10.4700    13.0420   -21.0860 ha         1 EZJ       0.130500
     47 H16         14.1810    13.9590   -18.0860 h1         1 EZJ       0.031200
     48 H17         12.7270    14.8580   -17.6370 h1         1 EZJ       0.031200
     49 H18         14.4250    16.3570   -18.6280 hc         1 EZJ       0.058700
     50 H19         12.9550    16.3350   -19.5980 hc         1 EZJ       0.058700
     51 H20         15.5360    14.7460   -20.1810 hc         1 EZJ       0.047200
     52 H21         14.9780    16.1570   -21.0750 hc         1 EZJ       0.047200
     53 H22         11.4110    11.7140   -19.1370 h1         1 EZJ       0.050700
     54 H23         12.8570    11.8190   -18.1550 h1         1 EZJ       0.050700
     55 H24         12.5690    12.7050   -15.7190 hn         1 EZJ       0.352000
     56 H26         11.3760    13.2770   -13.2050 ha         1 EZJ       0.114000
     57 H27          9.1320    13.8050   -12.1990 ha         1 EZJ       0.111000
     58 H28          7.1090    13.9380   -13.6620 ha         1 EZJ       0.113000
     59 H29          7.3130    13.5460   -16.1360 ha         1 EZJ       0.129000
     60 H5          16.5970    14.6580   -26.7850 ha         1 EZJ       0.146000
     61 Cl1         15.3590    12.0500   -26.7620 cl         1 EZJ      -0.199500
@<TRIPOS>BOND
     1     1    14 1   
     2     1    21 1   
     3     1    24 1   
     4     2     3 1   
     5     2    11 1   
     6     2    34 1   
     7     2    35 1   
     8     3    36 1   
     9     4     5 ar  
    10     4     9 ar  
    11     4    61 1   
    12     5     6 ar  
    13     5    60 1   
    14     6     7 1   
    15     6     8 ar  
    16     8    10 ar  
    17     8    37 1   
    18     9    10 ar  
    19     9    38 1   
    20    10    11 1   
    21    11    12 1   
    22    11    39 1   
    23    12    13 1   
    24    13    14 1   
    25    13    23 1   
    26    13    40 1   
    27    14    15 1   
    28    14    41 1   
    29    15    16 ar  
    30    15    20 ar  
    31    16    17 ar  
    32    16    42 1   
    33    17    18 ar  
    34    17    43 1   
    35    18    19 ar  
    36    18    44 1   
    37    19    20 ar  
    38    19    45 1   
    39    20    46 1   
    40    21    22 1   
    41    21    47 1   
    42    21    48 1   
    43    22    23 1   
    44    22    49 1   
    45    22    50 1   
    46    23    51 1   
    47    23    52 1   
    48    24    25 1   
    49    24    53 1   
    50    24    54 1   
    51    25    26 1   
    52    25    29 2   
    53    26    27 1   
    54    26    55 1   
    55    27    28 ar  
    56    27    30 ar  
    57    28    29 1   
    58    28    33 ar  
    59    30    31 ar  
    60    30    56 1   
    61    31    32 ar  
    62    31    57 1   
    63    32    33 ar  
    64    32    58 1   
    65    33    59 1   
@<TRIPOS>SUBSTRUCTURE
     1 EZJ         1 TEMP              0 ****  ****    0 ROOT
