@<TRIPOS>MOLECULE
EZK
   50    53     1     0     0
SMALL
bcc


@<TRIPOS>ATOM
      1 N1          -6.7300    -0.9080     1.1300 nu         1 EZK      -0.385600
      2 N3          -0.0130     0.1410     0.1170 ns         1 EZK      -0.468100
      3 C4          -4.9580     0.3360    -0.8510 ca         1 EZK      -0.012200
      4 C5          -4.1420    -0.7260    -0.4790 ca         1 EZK      -0.141500
      5 C6          -2.7700    -0.5470    -0.4200 ca         1 EZK      -0.058000
      6 C7          -2.1940     0.6750    -0.7570 ca         1 EZK      -0.139600
      7 C8          -3.0220     1.7160    -1.1740 ca         1 EZK      -0.058000
      8 C10         -0.7220     0.9180    -0.7470 c          1 EZK       0.689700
      9 C13          3.1780    -1.0100     1.4650 ca         1 EZK      -0.064000
     10 C15          3.6300     0.7720    -0.0580 ca         1 EZK       0.060400
     11 C17          6.3280    -0.9020     0.2690 cz         1 EZK       0.487300
     12 C1          -9.0100    -1.3100     0.9100 c5         1 EZK       0.011800
     13 C2          -7.8840    -1.2740     1.9480 c5         1 EZK       0.011800
     14 C3          -7.1360    -0.3830    -0.0190 cz         1 EZK       0.483300
     15 N2          -8.4480    -0.4960    -0.1610 nu         1 EZK      -0.369700
     16 C9          -4.3940     1.5570    -1.2060 ca         1 EZK      -0.141500
     17 C11          1.3630     0.0830     0.3120 ca         1 EZK       0.122600
     18 O1          -0.2210     1.7680    -1.4590 o          1 EZK      -0.534100
     19 C12          1.8280    -0.8770     1.2170 ca         1 EZK      -0.181000
     20 C14          4.1010    -0.1890     0.8310 ca         1 EZK      -0.108200
     21 C16          2.2800     0.9150    -0.3310 ca         1 EZK      -0.140000
     22 N4           5.4820    -0.3180     1.1070 nu         1 EZK      -0.309200
     23 N5           5.9860    -1.4400    -0.8940 nu         1 EZK      -0.370200
     24 C18          7.1200    -2.1550    -1.4690 c5         1 EZK       0.013300
     25 C19          8.2950    -1.5360    -0.7050 c5         1 EZK       0.013300
     26 N6           7.6300    -1.0230     0.4880 nu         1 EZK      -0.370200
     27 N7          -6.3560     0.1940    -0.9300 nu         1 EZK      -0.300300
     28 H1          -5.8460    -0.6650     1.5520 hn         1 EZK       0.337200
     29 H3          -0.5440    -0.4650     0.7240 hn         1 EZK       0.327500
     30 H4          -4.5590    -1.7010    -0.2630 ha         1 EZK       0.159000
     31 H5          -2.1630    -1.4020    -0.1500 ha         1 EZK       0.165500
     32 H6          -2.5940     2.6670    -1.4590 ha         1 EZK       0.165500
     33 H7           3.5280    -1.7620     2.1590 ha         1 EZK       0.158000
     34 H8          -9.2070    -2.3220     0.5540 h1         1 EZK       0.101450
     35 H9          -9.9350    -0.8800     1.2840 h1         1 EZK       0.101450
     36 H10         -7.7310    -2.2350     2.4310 h1         1 EZK       0.101450
     37 H11         -8.0570    -0.5150     2.7120 h1         1 EZK       0.101450
     38 H13         -8.9090    -0.3840    -1.0510 hn         1 EZK       0.337200
     39 H15         -5.0270     2.3820    -1.5040 ha         1 EZK       0.159000
     40 H16          1.1290    -1.5300     1.7230 ha         1 EZK       0.153000
     41 H17          1.9580     1.6720    -1.0260 ha         1 EZK       0.203000
     42 H18          5.0330    -1.6740    -1.1270 hn         1 EZK       0.336200
     43 H19          7.0290    -3.2260    -1.2790 h1         1 EZK       0.098950
     44 H20          7.1860    -1.9890    -2.5410 h1         1 EZK       0.098950
     45 H21          9.0580    -2.2660    -0.4490 h1         1 EZK       0.098950
     46 H22          8.7570    -0.7200    -1.2640 h1         1 EZK       0.098950
     47 H23          8.1150    -0.4760     1.1810 hn         1 EZK       0.336200
     48 H2          -6.8240     0.6580    -1.6960 hn         1 EZK       0.334700
     49 H12          5.8470     0.0710     1.9640 hn         1 EZK       0.336700
     50 CL1          4.7470     1.8220    -0.8470 cl         1 EZK      -0.052400
@<TRIPOS>BOND
     1     1    13 1   
     2     1    14 2   
     3     1    28 1   
     4     2     8 1   
     5     2    17 1   
     6     2    29 1   
     7     3     4 ar  
     8     3    16 ar  
     9     3    27 1   
    10     4     5 ar  
    11     4    30 1   
    12     5     6 ar  
    13     5    31 1   
    14     6     7 ar  
    15     6     8 1   
    16     7    16 ar  
    17     7    32 1   
    18     8    18 2   
    19     9    19 ar  
    20     9    20 ar  
    21     9    33 1   
    22    10    20 ar  
    23    10    21 ar  
    24    10    50 1   
    25    11    22 2   
    26    11    23 1   
    27    11    26 1   
    28    12    13 1   
    29    12    15 1   
    30    12    34 1   
    31    12    35 1   
    32    13    36 1   
    33    13    37 1   
    34    14    15 1   
    35    14    27 1   
    36    15    38 1   
    37    16    39 1   
    38    17    19 ar  
    39    17    21 ar  
    40    19    40 1   
    41    20    22 1   
    42    21    41 1   
    43    22    49 1   
    44    23    24 1   
    45    23    42 1   
    46    24    25 1   
    47    24    43 1   
    48    24    44 1   
    49    25    26 1   
    50    25    45 1   
    51    25    46 1   
    52    26    47 1   
    53    27    48 1   
@<TRIPOS>SUBSTRUCTURE
     1 EZK         1 TEMP              0 ****  ****    0 ROOT
