@<TRIPOS>MOLECULE
EZK
   50    53     1     0     0
SMALL
No Charge or Current Charge


@<TRIPOS>ATOM
      1 N1          -7.0470     0.1020     1.1960 nu         1 EZK      -0.870500
      2 N3          -0.0160    -0.3590    -0.0930 ns         1 EZK      -0.142000
      3 C4          -5.0820    -0.0490    -0.9340 ca         1 EZK      -0.012200
      4 C5          -4.2690    -0.9490    -0.2250 ca         1 EZK      -0.123500
      5 C6          -2.8760    -0.7680    -0.1750 ca         1 EZK      -0.040000
      6 C7          -2.2650     0.3150    -0.8550 ca         1 EZK      -0.139600
      7 C8          -3.0920     1.1970    -1.5900 ca         1 EZK      -0.040000
      8 C10         -0.7650     0.5520    -0.8280 c          1 EZK       0.622700
      9 C13          3.1950    -1.7690     1.1530 ca         1 EZK      -0.046000
     10 C15          3.6730     0.3900     0.1490 ca         1 EZK       0.152000
     11 C17          6.4840    -1.3260     0.3650 cz         1 EZK       0.892600
     12 C1          -9.2670    -0.6490     1.2160 c5         1 EZK       0.041100
     13 C2          -8.0900    -0.2450     2.1970 c5         1 EZK       0.041100
     14 C3          -7.3550    -0.0170    -0.0720 cz         1 EZK       0.888600
     15 N2          -8.5810    -0.4680    -0.0900 nu         1 EZK      -0.449300
     16 C9          -4.4840     1.0090    -1.6360 ca         1 EZK      -0.123500
     17 C11          1.3770    -0.4520     0.1800 ca         1 EZK       0.030000
     18 O1          -0.2650     1.4930    -1.4330 o          1 EZK      -0.534100
     19 C12          1.8330    -1.6040     0.8450 ca         1 EZK      -0.163000
     20 C14          4.1320    -0.7900     0.7830 ca         1 EZK      -0.108200
     21 C16          2.3110     0.5520    -0.1570 ca         1 EZK      -0.122000
     22 N4           5.4810    -0.9580     1.1560 nu         1 EZK      -0.764800
     23 N5           6.3840    -1.3150    -0.9330 nu         1 EZK      -0.449800
     24 C18          7.6080    -0.9920    -1.7050 c5         1 EZK       0.042600
     25 C19          8.6280    -0.7870    -0.5070 c5         1 EZK       0.042600
     26 N6           7.7140    -1.0070     0.6420 nu         1 EZK      -0.449800
     27 N7          -6.4640    -0.2650    -1.0240 nu         1 EZK      -0.350600
     28 H1          -6.0580     0.1110     1.4270 hn         1 EZK       0.387500
     29 H3          -0.5600    -1.0950     0.3330 hn         1 EZK       0.161000
     30 H4          -4.7170    -1.7970     0.2910 ha         1 EZK       0.141000
     31 H5          -2.2900    -1.4860     0.3950 ha         1 EZK       0.147500
     32 H6          -2.6580     2.0350    -2.1340 ha         1 EZK       0.147500
     33 H7           3.5190    -2.6670     1.6750 ha         1 EZK       0.140000
     34 H8          -9.5980    -1.6840     1.3820 h1         1 EZK       0.101450
     35 H9         -10.1350     0.0160     1.3290 h1         1 EZK       0.101450
     36 H10         -7.8000    -1.0860     2.8460 h1         1 EZK       0.101450
     37 H11         -8.3710     0.6030     2.8400 h1         1 EZK       0.101450
     38 H13         -8.8910    -0.9590    -0.9190 hn         1 EZK       0.387500
     39 H15         -5.0960     1.6990    -2.2150 ha         1 EZK       0.141000
     40 H16          1.1290    -2.3820     1.1300 ha         1 EZK       0.135000
     41 H17          2.0070     1.4720    -0.6430 ha         1 EZK       0.185000
     42 H18          5.4600    -1.1310    -1.2990 hn         1 EZK       0.386500
     43 H19          7.9170    -1.8110    -2.3690 h1         1 EZK       0.098950
     44 H20          7.4970    -0.0780    -2.3060 h1         1 EZK       0.098950
     45 H21          9.4450    -1.5210    -0.5390 h1         1 EZK       0.098950
     46 H22          9.0650     0.2220    -0.5140 h1         1 EZK       0.098950
     47 H23          7.8680    -0.5430     1.5280 hn         1 EZK       0.386500
     48 H2          -6.8410    -0.1760    -1.9590 hn         1 EZK       0.385000
     49 H12          5.6210    -1.2290     2.1260 hn         1 EZK       0.387000
     50 Cl1          4.7940     1.6870    -0.2700 cl         1 EZK      -0.144000
@<TRIPOS>BOND
     1     1    13 1   
     2     1    14 2   
     3     1    28 1   
     4     2     8 1   
     5     2    17 1   
     6     2    29 1   
     7     3     4 ar  
     8     3    16 ar  
     9     3    27 1   
    10     4     5 ar  
    11     4    30 1   
    12     5     6 ar  
    13     5    31 1   
    14     6     7 ar  
    15     6     8 1   
    16     7    16 ar  
    17     7    32 1   
    18     8    18 2   
    19     9    19 ar  
    20     9    20 ar  
    21     9    33 1   
    22    10    20 ar  
    23    10    21 ar  
    24    10    50 1   
    25    11    22 2   
    26    11    23 1   
    27    11    26 1   
    28    12    13 1   
    29    12    15 1   
    30    12    34 1   
    31    12    35 1   
    32    13    36 1   
    33    13    37 1   
    34    14    15 1   
    35    14    27 1   
    36    15    38 1   
    37    16    39 1   
    38    17    19 ar  
    39    17    21 ar  
    40    19    40 1   
    41    20    22 1   
    42    21    41 1   
    43    22    49 1   
    44    23    24 1   
    45    23    42 1   
    46    24    25 1   
    47    24    43 1   
    48    24    44 1   
    49    25    26 1   
    50    25    45 1   
    51    25    46 1   
    52    26    47 1   
    53    27    48 1   
@<TRIPOS>SUBSTRUCTURE
     1 EZK         1 TEMP              0 ****  ****    0 ROOT
