@<TRIPOS>MOLECULE
EZL
   26    27     1     0     0
SMALL
bcc


@<TRIPOS>ATOM
      1 N1          -3.9000     0.3390    -1.4540 n8         1 EZL      -0.939700
      2 C2           0.3150     0.8380    -0.0320 ca         1 EZL       0.024400
      3 C3           0.6540    -0.5270     0.0030 ca         1 EZL      -0.007100
      4 C4           1.9700    -0.9590     0.0060 ca         1 EZL      -0.155000
      5 C5           2.9750     0.0040    -0.0260 ca         1 EZL       0.179100
      6 C8           5.3240     0.4500    -0.0260 c3         1 EZL       0.142400
      7 S1          -3.4700    -0.0850     0.0660 sy         1 EZL       1.277000
      8 C1          -1.6920     0.0060     0.0190 cc         1 EZL       0.177600
      9 N2          -1.0340     1.0980    -0.0200 nd         1 EZL      -0.409100
     10 S2          -0.7910    -1.4790     0.0540 ss         1 EZL       0.018900
     11 C6           2.6490     1.3740    -0.0670 ca         1 EZL      -0.224000
     12 C7           1.3330     1.7880    -0.0680 ca         1 EZL      -0.014000
     13 C9           6.5980    -0.3570     0.0380 c3         1 EZL      -0.096100
     14 HN1         -4.2510    -0.4190    -2.0250 hn         1 EZL       0.441300
     15 HN1A        -4.4470     1.1880    -1.5190 hn         1 EZL       0.441300
     16 H4           2.2240    -2.0100     0.0370 ha         1 EZL       0.159000
     17 H8           5.3010     1.0570    -0.9370 h1         1 EZL       0.036700
     18 H8A          5.2590     1.1300     0.8300 h1         1 EZL       0.036700
     19 H6           3.4240     2.1260    -0.0940 ha         1 EZL       0.141000
     20 H7           1.0920     2.8420    -0.0960 ha         1 EZL       0.152000
     21 H9           7.4540     0.3170     0.0300 hc         1 EZL       0.050033
     22 H9A          6.6470    -0.9500     0.9510 hc         1 EZL       0.050033
     23 H9B          6.6890    -1.0260    -0.8180 hc         1 EZL       0.050033
     24 O3           4.2310    -0.4620    -0.0140 os         1 EZL      -0.322900
     25 O1          -3.9290     0.9310     0.9830 o          1 EZL      -0.604300
     26 O2          -3.7340    -1.4940     0.2680 o          1 EZL      -0.604300
@<TRIPOS>BOND
     1     1     7 1   
     2     1    14 1   
     3     1    15 1   
     4     2     3 ar  
     5     2     9 1   
     6     2    12 ar  
     7     3     4 ar  
     8     3    10 1   
     9     4     5 ar  
    10     4    16 1   
    11     5    11 ar  
    12     5    24 1   
    13     6    13 1   
    14     6    17 1   
    15     6    18 1   
    16     6    24 1   
    17     7     8 1   
    18     7    25 2   
    19     7    26 2   
    20     8     9 2   
    21     8    10 1   
    22    11    12 ar  
    23    11    19 1   
    24    12    20 1   
    25    13    21 1   
    26    13    22 1   
    27    13    23 1   
@<TRIPOS>SUBSTRUCTURE
     1 EZL         1 TEMP              0 ****  ****    0 ROOT
