@<TRIPOS>MOLECULE
EZL
   26    27     1     0     0
SMALL
No Charge or Current Charge


@<TRIPOS>ATOM
      1 N1          -3.9690     0.0450    -1.6030 n8         1 EZL      -1.050100
      2 C2           0.3300     0.8990     0.0170 ca         1 EZL       0.024400
      3 C3           0.6410    -0.4450    -0.0280 ca         1 EZL      -0.134000
      4 C4           1.9700    -0.8970    -0.0420 ca         1 EZL      -0.137000
      5 C5           3.0130     0.0460    -0.0080 ca         1 EZL       0.179100
      6 C8           5.4450     0.4550     0.0100 c3         1 EZL       0.165600
      7 S1          -3.5360    -0.0460    -0.0190 sy         1 EZL       1.135400
      8 C1          -1.7130     0.0570    -0.0130 cc         1 EZL       0.177600
      9 N2          -1.0220     1.2170     0.0270 nd         1 EZL      -0.409100
     10 S2          -0.7910    -1.4610    -0.0660 ss         1 EZL       0.145800
     11 C6           2.7050     1.4280     0.0390 ca         1 EZL      -0.206000
     12 C7           1.3600     1.8540     0.0520 ca         1 EZL       0.004000
     13 C9           6.7100    -0.4180    -0.0180 c3         1 EZL      -0.096100
     14 HN1         -4.6840    -0.6800    -1.6400 hn         1 EZL       0.496500
     15 HN1A        -4.5320     0.8940    -1.5840 hn         1 EZL       0.496500
     16 H4           2.1950    -1.9600    -0.0780 ha         1 EZL       0.141000
     17 H8           5.4440     1.1240    -0.8600 h1         1 EZL       0.036700
     18 H8A          5.4410     1.0630     0.9240 h1         1 EZL       0.036700
     19 H6           3.4880     2.1800     0.0660 ha         1 EZL       0.123000
     20 H7           1.1200     2.9140     0.0870 ha         1 EZL       0.134000
     21 H9           7.6060     0.2120     0.0050 hc         1 EZL       0.050033
     22 H9A          6.7370    -1.0870     0.8510 hc         1 EZL       0.050033
     23 H9B          6.7400    -1.0260    -0.9300 hc         1 EZL       0.050033
     24 O3           4.3100    -0.4260    -0.0220 os         1 EZL      -0.346100
     25 O1          -4.1340     1.1620     0.5510 o          1 EZL      -0.533500
     26 O2          -3.9810    -1.3850     0.3710 o          1 EZL      -0.533500
@<TRIPOS>BOND
     1     1     7 1   
     2     1    14 1   
     3     1    15 1   
     4     2     3 ar  
     5     2     9 1   
     6     2    12 ar  
     7     3     4 ar  
     8     3    10 1   
     9     4     5 ar  
    10     4    16 1   
    11     5    11 ar  
    12     5    24 1   
    13     6    13 1   
    14     6    17 1   
    15     6    18 1   
    16     6    24 1   
    17     7     8 1   
    18     7    25 2   
    19     7    26 2   
    20     8     9 2   
    21     8    10 1   
    22    11    12 ar  
    23    11    19 1   
    24    12    20 1   
    25    13    21 1   
    26    13    22 1   
    27    13    23 1   
@<TRIPOS>SUBSTRUCTURE
     1 EZL         1 TEMP              0 ****  ****    0 ROOT
