@<TRIPOS>MOLECULE
EZM
   48    48     1     0     0
SMALL
No Charge or Current Charge


@<TRIPOS>ATOM
      1 CAG         -2.3390    -0.1620     0.8200 ca         1 EZM      -0.108500
      2 CAI         -3.0140    -1.2860     0.3160 ca         1 EZM      -0.041500
      3 CAU         -3.8760    -1.1630    -0.7990 ca         1 EZM      -0.174200
      4 NAY         -4.5970    -2.3600    -1.3400 no         1 EZM       0.694200
      5 OAF         -4.4160    -3.4530    -0.7870 o          1 EZM      -0.400500
      6 OAC         -5.3440    -2.2030    -2.3160 o          1 EZM      -0.400500
      7 CAJ         -4.0450     0.1080    -1.3940 ca         1 EZM      -0.041500
      8 CAH         -3.3670     1.2290    -0.8830 ca         1 EZM      -0.108500
      9 CAT         -2.5100     1.1080     0.2280 ca         1 EZM      -0.061300
     10 CAW         -1.7760     2.3470     0.7570 c3         1 EZM       0.208600
     11 OAE         -1.6620     2.3080     2.1880 oh         1 EZM      -0.634000
     12 CAX         -0.3600     2.5260     0.1250 c3         1 EZM       0.068700
     13 CAM          0.3290     3.8480     0.5630 c3         1 EZM       0.152600
     14 OAD          0.6020     3.8380     1.9780 oh         1 EZM      -0.665000
     15 NAP          0.5230     1.3700     0.3810 ns         1 EZM      -0.512900
     16 C            0.8650     0.4080    -0.5480 c          1 EZM       0.556100
     17 O            0.4450     0.4360    -1.6990 o          1 EZM      -0.599100
     18 CA           1.7890    -0.7440    -0.0100 c3         1 EZM       0.091500
     19 N            1.3030    -2.1330    -0.3130 n8         1 EZM      -0.980200
     20 CB           3.2410    -0.5500    -0.5200 c3         1 EZM      -0.064400
     21 CG           4.2890    -1.4540     0.1750 c3         1 EZM      -0.072400
     22 CD           5.7320    -1.1940    -0.3150 c3         1 EZM      -0.079400
     23 CE           6.7720    -2.0980     0.3790 c3         1 EZM       0.149800
     24 NZ           8.1360    -1.8280    -0.1110 n8         1 EZM      -0.995200
     25 H1          -1.6790    -0.2800     1.6760 ha         1 EZM       0.123000
     26 H2          -2.8620    -2.2500     0.7990 ha         1 EZM       0.150000
     27 H3          -4.6990     0.2380    -2.2550 ha         1 EZM       0.150000
     28 H4          -3.5090     2.1970    -1.3590 ha         1 EZM       0.123000
     29 H5          -2.3680     3.2280     0.4720 h1         1 EZM       0.083700
     30 H6          -0.8610     2.8590     2.3830 ho         1 EZM       0.450000
     31 H7          -0.5120     2.6070    -0.9590 h1         1 EZM       0.088700
     32 H8           1.2640     3.9610    -0.0020 h1         1 EZM       0.037700
     33 H9          -0.3190     4.6970     0.3040 h1         1 EZM       0.037700
     34 H10          1.1730     4.6180     2.1660 ho         1 EZM       0.452000
     35 H11          0.9150     1.2730     1.3110 hn         1 EZM       0.324500
     36 H12          1.8080    -0.6410     1.0850 h1         1 EZM       0.062700
     37 H13          0.3510    -2.2470     0.0560 hn         1 EZM       0.411000
     38 H14          1.1660    -2.2150    -1.3280 hn         1 EZM       0.411000
     39 H16          3.2730    -0.7180    -1.6040 hc         1 EZM       0.045200
     40 H17          3.5270     0.4970    -0.3590 hc         1 EZM       0.045200
     41 H18          4.2430    -1.2900     1.2590 hc         1 EZM       0.048700
     42 H19          4.0390    -2.5070     0.0000 hc         1 EZM       0.048700
     43 H20          5.7780    -1.3580    -1.3990 hc         1 EZM       0.044200
     44 H21          5.9890    -0.1420    -0.1360 hc         1 EZM       0.044200
     45 H22          6.7460    -1.9270     1.4640 h1         1 EZM       0.027700
     46 H23          6.5320    -3.1530     0.1870 h1         1 EZM       0.027700
     47 H24          8.3970    -0.8670     0.1410 hn         1 EZM       0.391000
     48 H25          8.8020    -2.4040     0.4200 hn         1 EZM       0.391000
@<TRIPOS>BOND
     1     1     2 ar  
     2     1     9 ar  
     3     1    25 1   
     4     2     3 ar  
     5     2    26 1   
     6     3     4 1   
     7     3     7 ar  
     8     4     5 1   
     9     4     6 1   
    10     7     8 ar  
    11     7    27 1   
    12     8     9 ar  
    13     8    28 1   
    14     9    10 1   
    15    10    11 1   
    16    10    12 1   
    17    10    29 1   
    18    11    30 1   
    19    12    13 1   
    20    12    15 1   
    21    12    31 1   
    22    13    14 1   
    23    13    32 1   
    24    13    33 1   
    25    14    34 1   
    26    15    16 1   
    27    15    35 1   
    28    16    17 2   
    29    16    18 1   
    30    18    19 1   
    31    18    20 1   
    32    18    36 1   
    33    19    37 1   
    34    19    38 1   
    35    20    21 1   
    36    20    39 1   
    37    20    40 1   
    38    21    22 1   
    39    21    41 1   
    40    21    42 1   
    41    22    23 1   
    42    22    43 1   
    43    22    44 1   
    44    23    24 1   
    45    23    45 1   
    46    23    46 1   
    47    24    47 1   
    48    24    48 1   
@<TRIPOS>SUBSTRUCTURE
     1 EZM         1 TEMP              0 ****  ****    0 ROOT
