@<TRIPOS>MOLECULE
EZM
   48    48     1     0     0
SMALL
abcg2


@<TRIPOS>ATOM
      1 CAG         -2.4010    -0.0610     0.9790 ca         1 EZM      -0.108500
      2 CAI         -3.0180    -1.1830     0.4540 ca         1 EZM      -0.041500
      3 CAU         -3.6660    -1.0840    -0.7680 ca         1 EZM      -0.174200
      4 NAY         -4.3150    -2.2560    -1.3260 no         1 EZM       0.694200
      5 OAF         -4.2360    -3.2970    -0.7160 o          1 EZM      -0.400500
      6 OAC         -4.9030    -2.1380    -2.3770 o          1 EZM      -0.400500
      7 CAJ         -3.7140     0.1150    -1.4670 ca         1 EZM      -0.041500
      8 CAH         -3.0810     1.2190    -0.9300 ca         1 EZM      -0.108500
      9 CAT         -2.4110     1.1460     0.2880 ca         1 EZM      -0.061300
     10 CAW         -1.6650     2.3570     0.7970 c3         1 EZM       0.208600
     11 OAE         -1.5870     2.3940     2.1960 oh         1 EZM      -0.634000
     12 CAX         -0.2890     2.4380     0.0990 c3         1 EZM       0.068700
     13 CAM          0.4930     3.7030     0.4320 c3         1 EZM       0.152600
     14 OAD          0.9930     3.6400     1.7490 oh         1 EZM      -0.665000
     15 NAP          0.5140     1.2720     0.3850 ns         1 EZM      -0.512900
     16 C            0.6420     0.2140    -0.4430 c          1 EZM       0.556100
     17 O            0.0590     0.1200    -1.5100 o          1 EZM      -0.599100
     18 CA           1.6130    -0.8640     0.0480 c3         1 EZM       0.091500
     19 N            1.2600    -2.1930    -0.4000 n8         1 EZM      -0.980200
     20 CB           3.0280    -0.4910    -0.4070 c3         1 EZM      -0.064400
     21 CG           4.1040    -1.3970     0.1760 c3         1 EZM      -0.072400
     22 CD           5.5060    -0.9970    -0.2660 c3         1 EZM      -0.079400
     23 CE           6.5870    -1.8740     0.3460 c3         1 EZM       0.149800
     24 NZ           7.9100    -1.4720    -0.1130 n8         1 EZM      -0.995200
     25 H1          -1.9110    -0.1490     1.9390 ha         1 EZM       0.123000
     26 H2          -2.9890    -2.1150     0.9990 ha         1 EZM       0.150000
     27 H3          -4.2330     0.1950    -2.4100 ha         1 EZM       0.150000
     28 H4          -3.1110     2.1560    -1.4720 ha         1 EZM       0.123000
     29 H5          -2.2230     3.2500     0.4960 h1         1 EZM       0.083700
     30 H6          -0.8770     1.8190     2.5000 ho         1 EZM       0.450000
     31 H7          -0.4810     2.4660    -0.9750 h1         1 EZM       0.088700
     32 H8           1.3070     3.7880    -0.2950 h1         1 EZM       0.037700
     33 H9          -0.1620     4.5710     0.2860 h1         1 EZM       0.037700
     34 H10          1.7960     4.1660     1.7940 ho         1 EZM       0.452000
     35 H11          1.1070     1.3120     1.2000 hn         1 EZM       0.324500
     36 H12          1.6000    -0.8670     1.1440 h1         1 EZM       0.062700
     37 H13          0.3530    -2.4510    -0.0330 hn         1 EZM       0.411000
     38 H14          1.1610    -2.1920    -1.4090 hn         1 EZM       0.411000
     39 H16          3.0710    -0.5170    -1.5010 hc         1 EZM       0.045200
     40 H17          3.2330     0.5440    -0.1170 hc         1 EZM       0.045200
     41 H18          4.0420    -1.3670     1.2700 hc         1 EZM       0.048700
     42 H19          3.9080    -2.4320    -0.1140 hc         1 EZM       0.048700
     43 H20          5.5800    -1.0460    -1.3570 hc         1 EZM       0.044200
     44 H21          5.6890     0.0480     0.0100 hc         1 EZM       0.044200
     45 H22          6.4790    -1.8580     1.4400 h1         1 EZM       0.027700
     46 H23          6.4200    -2.9110     0.0400 h1         1 EZM       0.027700
     47 H24          8.1250    -0.5550     0.2580 hn         1 EZM       0.391000
     48 H25          8.6050    -2.0930     0.2800 hn         1 EZM       0.391000
@<TRIPOS>BOND
     1     1     2 ar  
     2     1     9 ar  
     3     1    25 1   
     4     2     3 ar  
     5     2    26 1   
     6     3     4 1   
     7     3     7 ar  
     8     4     5 1   
     9     4     6 1   
    10     7     8 ar  
    11     7    27 1   
    12     8     9 ar  
    13     8    28 1   
    14     9    10 1   
    15    10    11 1   
    16    10    12 1   
    17    10    29 1   
    18    11    30 1   
    19    12    13 1   
    20    12    15 1   
    21    12    31 1   
    22    13    14 1   
    23    13    32 1   
    24    13    33 1   
    25    14    34 1   
    26    15    16 1   
    27    15    35 1   
    28    16    17 2   
    29    16    18 1   
    30    18    19 1   
    31    18    20 1   
    32    18    36 1   
    33    19    37 1   
    34    19    38 1   
    35    20    21 1   
    36    20    39 1   
    37    20    40 1   
    38    21    22 1   
    39    21    41 1   
    40    21    42 1   
    41    22    23 1   
    42    22    43 1   
    43    22    44 1   
    44    23    24 1   
    45    23    45 1   
    46    23    46 1   
    47    24    47 1   
    48    24    48 1   
@<TRIPOS>SUBSTRUCTURE
     1 EZM         1 TEMP              0 ****  ****    0 ROOT
