@<TRIPOS>MOLECULE
EZN
   31    33     1     0     0
SMALL
abcg2


@<TRIPOS>ATOM
      1 N1           4.2790    -0.7400     0.5690 na         1 EZN      -0.223700
      2 C2          -3.0290    -0.4350     0.2680 ca         1 EZN      -0.107000
      3 C4          -0.7590    -1.0830    -0.2610 ca         1 EZN      -0.092000
      4 C5          -0.3360     0.2310    -0.0640 cp         1 EZN      -0.022000
      5 C6          -1.2730     1.1980     0.2980 ca         1 EZN      -0.079000
      6 C8           1.4170     1.7630    -0.9360 ca         1 EZN      -0.125000
      7 C9           2.7500     2.1360    -1.1530 ca         1 EZN      -0.094000
      8 C10          3.7950     1.3580    -0.6960 ca         1 EZN      -0.123000
      9 C11          3.4670     0.1910    -0.0090 ca         1 EZN      -0.051200
     10 C12          3.5170    -1.7030     1.1610 cc         1 EZN      -0.164100
     11 C13          2.1930    -1.4220     0.9760 cd         1 EZN      -0.241200
     12 C3          -2.0970    -1.3940    -0.0900 ca         1 EZN       0.116000
     13 C1          -2.6150     0.8780     0.4690 ca         1 EZN      -0.081300
     14 C           -3.6190     1.9170     0.9040 c3         1 EZN       0.197100
     15 N           -3.2610     3.2500     0.4580 n8         1 EZN      -0.998200
     16 C7           1.0800     0.5980    -0.2620 cp         1 EZN       0.008000
     17 C14          2.1300    -0.2090     0.2200 ca         1 EZN      -0.083800
     18 H1           5.2850    -0.7180     0.5710 hn         1 EZN       0.349000
     19 H2          -4.0720    -0.7040     0.3870 ha         1 EZN       0.124000
     20 H3          -0.0580    -1.8480    -0.5690 ha         1 EZN       0.136000
     21 H4          -0.9530     2.2190     0.4620 ha         1 EZN       0.139000
     22 H5           0.6280     2.3940    -1.3290 ha         1 EZN       0.115000
     23 H6           2.9610     3.0490    -1.6950 ha         1 EZN       0.112000
     24 H7           4.8250     1.6450    -0.8620 ha         1 EZN       0.113000
     25 H8           3.9800    -2.5280     1.6770 h4         1 EZN       0.212000
     26 H9           1.3720    -2.0150     1.3460 ha         1 EZN       0.209000
     27 H10         -4.6170     1.5900     0.5830 h1         1 EZN       0.037200
     28 H11         -3.6480     1.9250     1.9980 h1         1 EZN       0.037200
     29 H12         -3.3920     3.3190    -0.5440 hn         1 EZN       0.398000
     30 H13         -3.8970     3.9200     0.8680 hn         1 EZN       0.398000
     31 CL          -2.6230    -3.0270    -0.3530 cl         1 EZN      -0.212000
@<TRIPOS>BOND
     1     1     9 1   
     2     1    10 1   
     3     1    18 1   
     4     2    12 ar  
     5     2    13 ar  
     6     2    19 1   
     7     3     4 ar  
     8     3    12 ar  
     9     3    20 1   
    10     4     5 ar  
    11     4    16 1   
    12     5    13 ar  
    13     5    21 1   
    14     6     7 ar  
    15     6    16 ar  
    16     6    22 1   
    17     7     8 ar  
    18     7    23 1   
    19     8     9 ar  
    20     8    24 1   
    21     9    17 ar  
    22    10    11 2   
    23    10    25 1   
    24    11    17 1   
    25    11    26 1   
    26    12    31 1   
    27    13    14 1   
    28    14    15 1   
    29    14    27 1   
    30    14    28 1   
    31    15    29 1   
    32    15    30 1   
    33    16    17 ar  
@<TRIPOS>SUBSTRUCTURE
     1 EZN         1 TEMP              0 ****  ****    0 ROOT
