@<TRIPOS>MOLECULE
EZN
   31    33     1     0     0
SMALL
No Charge or Current Charge


@<TRIPOS>ATOM
      1 N1           4.3330    -0.9120     0.5350 na         1 EZN      -0.223700
      2 C2          -3.0220    -0.2810     0.2680 ca         1 EZN      -0.107000
      3 C4          -0.7690    -0.9590    -0.3530 ca         1 EZN      -0.092000
      4 C5          -0.2700     0.3310    -0.0500 cp         1 EZN      -0.022000
      5 C6          -1.1890     1.3100     0.4050 ca         1 EZN      -0.079000
      6 C8           1.5850     1.8810    -0.8340 ca         1 EZN      -0.125000
      7 C9           2.9530     2.1960    -1.0130 ca         1 EZN      -0.094000
      8 C10          3.9510     1.2980    -0.5830 ca         1 EZN      -0.123000
      9 C11          3.5410     0.1040     0.0220 ca         1 EZN      -0.051200
     10 C12          3.5250    -1.9270     1.0850 cc         1 EZN      -0.164100
     11 C13          2.2300    -1.4790     0.8760 cd         1 EZN      -0.241200
     12 C3          -2.1300    -1.2610    -0.1930 ca         1 EZN       0.116000
     13 C1          -2.5570     1.0130     0.5690 ca         1 EZN      -0.081300
     14 C           -3.5190     2.0810     1.0730 c3         1 EZN       0.197100
     15 N           -3.9820     2.9500    -0.0250 n8         1 EZN      -0.998200
     16 C7           1.1760     0.6620    -0.2260 cp         1 EZN       0.008000
     17 C14          2.2150    -0.2020     0.1970 ca         1 EZN      -0.083800
     18 H1           5.3490    -0.9160     0.5190 hn         1 EZN       0.349000
     19 H2          -4.0750    -0.5270     0.3890 ha         1 EZN       0.124000
     20 H3          -0.0970    -1.7250    -0.7290 ha         1 EZN       0.136000
     21 H4          -0.8300     2.3090     0.6420 ha         1 EZN       0.139000
     22 H5           0.8330     2.5850    -1.1830 ha         1 EZN       0.115000
     23 H6           3.2360     3.1340    -1.4850 ha         1 EZN       0.112000
     24 H7           5.0050     1.5300    -0.7130 ha         1 EZN       0.113000
     25 H8           3.9170    -2.8240     1.5590 h4         1 EZN       0.212000
     26 H9           1.3450    -2.0190     1.2040 ha         1 EZN       0.209000
     27 H10         -4.3910     1.6050     1.5420 h1         1 EZN       0.037200
     28 H11         -3.0210     2.7010     1.8320 h1         1 EZN       0.037200
     29 H12         -4.4990     2.3760    -0.7010 hn         1 EZN       0.398000
     30 H13         -4.6920     3.5960     0.3400 hn         1 EZN       0.398000
     31 Cl          -2.7210    -2.8720    -0.5770 cl         1 EZN      -0.212000
@<TRIPOS>BOND
     1     1     9 1   
     2     1    10 1   
     3     1    18 1   
     4     2    12 ar  
     5     2    13 ar  
     6     2    19 1   
     7     3     4 ar  
     8     3    12 ar  
     9     3    20 1   
    10     4     5 ar  
    11     4    16 1   
    12     5    13 ar  
    13     5    21 1   
    14     6     7 ar  
    15     6    16 ar  
    16     6    22 1   
    17     7     8 ar  
    18     7    23 1   
    19     8     9 ar  
    20     8    24 1   
    21     9    17 ar  
    22    10    11 2   
    23    10    25 1   
    24    11    17 1   
    25    11    26 1   
    26    12    31 1   
    27    13    14 1   
    28    14    15 1   
    29    14    27 1   
    30    14    28 1   
    31    15    29 1   
    32    15    30 1   
    33    16    17 ar  
@<TRIPOS>SUBSTRUCTURE
     1 EZN         1 TEMP              0 ****  ****    0 ROOT
