@<TRIPOS>MOLECULE
EZO
   38    40     1     0     0
SMALL
bcc


@<TRIPOS>ATOM
      1 C1          33.5300   -21.1800    22.0490 ca         1 EZO      -0.139000
      2 C2          32.4780   -21.4130    21.1710 ca         1 EZO      -0.171000
      3 C3          31.2600   -21.8370    21.6660 ca         1 EZO      -0.116000
      4 C4          31.0630   -22.0580    23.0350 ca         1 EZO      -0.135900
      5 C5          32.1260   -21.8230    23.9290 ca         1 EZO      -0.097600
      6 C6          33.3400   -21.3700    23.4070 ca         1 EZO      -0.120000
      7 C7          32.0560   -22.0350    25.4470 c          1 EZO       0.924200
      8 C12         29.7420   -22.4890    23.5060 ce         1 EZO       0.452800
      9 C15         26.5940   -22.9620    22.1440 cc         1 EZO       0.742300
     10 O8          31.3100   -22.9410    25.8670 o          1 EZO      -0.819300
     11 O9          32.7810   -21.2900    26.1300 o          1 EZO      -0.819300
     12 N13         28.7670   -22.5560    22.6850 n2         1 EZO      -0.488400
     13 N14         27.5590   -22.9570    23.1040 nh         1 EZO      -0.456400
     14 N16         25.3660   -23.3210    22.3300 nd         1 EZO      -0.735000
     15 C17         24.6510   -23.2140    21.1650 cd         1 EZO       0.433800
     16 C18         25.3460   -22.7720    20.0880 cc         1 EZO      -0.257400
     17 S19         26.9880   -22.4600    20.5260 ss         1 EZO      -0.156300
     18 C20         23.2330   -23.6060    21.1290 ca         1 EZO      -0.087500
     19 C21         22.2820   -23.0990    22.0170 ca         1 EZO       0.054400
     20 C22         20.9550   -23.4960    21.9630 ca         1 EZO      -0.134000
     21 C23         20.5500   -24.4140    21.0050 ca         1 EZO      -0.127000
     22 C24         21.4720   -24.9220    20.1020 ca         1 EZO      -0.137000
     23 C25         22.7960   -24.5210    20.1710 ca         1 EZO      -0.112000
     24 CL1         22.7260   -21.9040    23.1900 cl         1 EZO      -0.094400
     25 C27         27.2750   -23.3420    24.4680 c3         1 EZO       0.189100
     26 H1          34.4900   -20.8460    21.6770 ha         1 EZO       0.107000
     27 H2          32.6060   -21.2620    20.1070 ha         1 EZO       0.107000
     28 H3          30.4390   -22.0070    20.9810 ha         1 EZO       0.125000
     29 H4          34.1550   -21.1710    24.0880 ha         1 EZO       0.146000
     30 H5          29.6570   -22.7420    24.5560 h4         1 EZO       0.057800
     31 H7          24.9880   -22.6020    19.0840 h4         1 EZO       0.166000
     32 H8          20.2400   -23.0840    22.6620 ha         1 EZO       0.140000
     33 H9          19.5140   -24.7240    20.9670 ha         1 EZO       0.126000
     34 H10         21.1640   -25.6370    19.3510 ha         1 EZO       0.128000
     35 H11         23.5210   -24.9350    19.4810 ha         1 EZO       0.138000
     36 H12         27.4530   -22.5110    25.1520 h1         1 EZO       0.056367
     37 H13         26.2340   -23.6380    24.5370 h1         1 EZO       0.056367
     38 H14         27.9010   -24.1850    24.7680 h1         1 EZO       0.056367
@<TRIPOS>BOND
     1     1     2 ar  
     2     1     6 ar  
     3     1    26 1   
     4     2     3 ar  
     5     2    27 1   
     6     3     4 ar  
     7     3    28 1   
     8     4     5 ar  
     9     4     8 1   
    10     5     6 ar  
    11     5     7 1   
    12     6    29 1   
    13     7    10 1   
    14     7    11 1   
    15     8    12 2   
    16     8    30 1   
    17     9    13 1   
    18     9    14 2   
    19     9    17 1   
    20    12    13 1   
    21    13    25 1   
    22    14    15 1   
    23    15    16 2   
    24    15    18 1   
    25    16    17 1   
    26    16    31 1   
    27    18    19 ar  
    28    18    23 ar  
    29    19    20 ar  
    30    19    24 1   
    31    20    21 ar  
    32    20    32 1   
    33    21    22 ar  
    34    21    33 1   
    35    22    23 ar  
    36    22    34 1   
    37    23    35 1   
    38    25    36 1   
    39    25    37 1   
    40    25    38 1   
@<TRIPOS>SUBSTRUCTURE
     1 EZO         1 TEMP              0 ****  ****    0 ROOT
