@<TRIPOS>MOLECULE
EZO
   38    40     1     0     0
SMALL
No Charge or Current Charge


@<TRIPOS>ATOM
      1 C1          33.8380   -21.4720    22.1060 ca         1 EZO      -0.121000
      2 C2          32.7910   -21.6470    21.1920 ca         1 EZO      -0.153000
      3 C3          31.4830   -21.8610    21.6550 ca         1 EZO      -0.098000
      4 C4          31.1980   -21.9010    23.0420 ca         1 EZO      -0.135900
      5 C5          32.2700   -21.7440    23.9680 ca         1 EZO      -0.097600
      6 C6          33.5780   -21.5210    23.4830 ca         1 EZO      -0.102000
      7 C7          32.0610   -21.8220    25.4670 c          1 EZO       0.713600
      8 C12         29.7870   -22.1090    23.5200 ce         1 EZO       0.452800
      9 C15         26.5830   -22.9710    22.0330 cc         1 EZO       0.742300
     10 O8          31.4790   -22.7960    25.9220 o          1 EZO      -0.714000
     11 O9          32.5210   -20.9260    26.1600 o          1 EZO      -0.714000
     12 N13         28.8220   -22.4080    22.6900 n2         1 EZO      -0.488400
     13 N14         27.5330   -22.7850    23.0480 nh         1 EZO      -0.456400
     14 N16         25.3140   -23.2500    22.2930 nd         1 EZO      -0.735000
     15 C17         24.5750   -23.3700    21.1250 cd         1 EZO       0.368500
     16 C18         25.3270   -23.1970    19.9780 cc         1 EZO      -0.319000
     17 S19         26.9900   -22.8370    20.3370 ss         1 EZO      -0.011400
     18 C20         23.1180   -23.7110    21.1310 ca         1 EZO      -0.087500
     19 C21         22.3090   -23.7970    22.3100 ca         1 EZO       0.146000
     20 C22         20.9480   -24.1430    22.2170 ca         1 EZO      -0.116000
     21 C23         20.3550   -24.4150    20.9780 ca         1 EZO      -0.109000
     22 C24         21.1270   -24.3390    19.8160 ca         1 EZO      -0.119000
     23 C25         22.4850   -23.9940    19.8910 ca         1 EZO      -0.094000
     24 Cl1         22.8760   -23.4580    23.9520 cl         1 EZO      -0.186000
     25 C27         27.1590   -22.9730    24.4800 c3         1 EZO       0.189100
     26 H1          34.8510   -21.3040    21.7480 ha         1 EZO       0.089000
     27 H2          32.9900   -21.6130    20.1240 ha         1 EZO       0.089000
     28 H3          30.6870   -21.9850    20.9230 ha         1 EZO       0.107000
     29 H4          34.4010   -21.3960    24.1850 ha         1 EZO       0.128000
     30 H5          29.5800   -21.8750    24.5650 h4         1 EZO       0.057800
     31 H7          25.0260   -23.2410    18.9420 h4         1 EZO       0.148000
     32 H8          20.3460   -24.1990    23.1200 ha         1 EZO       0.122000
     33 H9          19.3010   -24.6820    20.9210 ha         1 EZO       0.108000
     34 H10         20.6730   -24.5510    18.8500 ha         1 EZO       0.110000
     35 H11         23.0390   -23.9610    18.9590 ha         1 EZO       0.120000
     36 H12         26.9070   -22.0080    24.9360 h1         1 EZO       0.056367
     37 H13         26.2960   -23.6420    24.5900 h1         1 EZO       0.056367
     38 H14         27.9850   -23.4230    25.0460 h1         1 EZO       0.056367
@<TRIPOS>BOND
     1     1     2 ar  
     2     1     6 ar  
     3     1    26 1   
     4     2     3 ar  
     5     2    27 1   
     6     3     4 ar  
     7     3    28 1   
     8     4     5 ar  
     9     4     8 1   
    10     5     6 ar  
    11     5     7 1   
    12     6    29 1   
    13     7    10 1   
    14     7    11 1   
    15     8    12 2   
    16     8    30 1   
    17     9    13 1   
    18     9    14 2   
    19     9    17 1   
    20    12    13 1   
    21    13    25 1   
    22    14    15 1   
    23    15    16 2   
    24    15    18 1   
    25    16    17 1   
    26    16    31 1   
    27    18    19 ar  
    28    18    23 ar  
    29    19    20 ar  
    30    19    24 1   
    31    20    21 ar  
    32    20    32 1   
    33    21    22 ar  
    34    21    33 1   
    35    22    23 ar  
    36    22    34 1   
    37    23    35 1   
    38    25    36 1   
    39    25    37 1   
    40    25    38 1   
@<TRIPOS>SUBSTRUCTURE
     1 EZO         1 TEMP              0 ****  ****    0 ROOT
