@<TRIPOS>MOLECULE
EZP
   44    45     1     0     0
SMALL
abcg2


@<TRIPOS>ATOM
      1 CAG          1.4740    -0.2530    -1.4790 ca         1 EZP      -0.107500
      2 CAI          1.3180    -1.6080    -1.2410 ca         1 EZP      -0.049000
      3 CAU          1.7870    -2.1410    -0.0510 ca         1 EZP      -0.181200
      4 NAY          1.6050    -3.5570     0.2130 no         1 EZP       0.695200
      5 OAF          0.9160    -4.1950    -0.5490 o          1 EZP      -0.402000
      6 OAC          2.1480    -4.0310     1.1840 o          1 EZP      -0.402000
      7 CAJ          2.4270    -1.3490     0.8930 ca         1 EZP      -0.049000
      8 CAH          2.5750     0.0010     0.6360 ca         1 EZP      -0.107500
      9 CAT          2.0920     0.5690    -0.5410 ca         1 EZP      -0.035300
     10 CAW          2.1950     2.0610    -0.7410 c3         1 EZP       0.207600
     11 OAE          1.9320     2.3590    -2.0840 oh         1 EZP      -0.670000
     12 CAX          1.2190     2.7670     0.2240 c3         1 EZP       0.074700
     13 CAM          1.3260     4.2840     0.1680 c3         1 EZP       0.141600
     14 OAD          0.9930     4.7310    -1.1330 oh         1 EZP      -0.679000
     15 NAP         -0.1220     2.2840    -0.0100 ns         1 EZP      -0.498900
     16 C           -0.9610     1.9240     0.9760 c          1 EZP       0.604100
     17 O           -0.7420     2.1440     2.1590 o          1 EZP      -0.610100
     18 CA          -2.1770     1.1280     0.5320 c3         1 EZP       0.098500
     19 N           -3.3610     1.6410     1.1940 n8         1 EZP      -0.984200
     20 CB          -1.8590    -0.3580     0.8140 c3         1 EZP      -0.130700
     21 CG          -2.8150    -1.2990     0.1630 cc         1 EZP       0.231300
     22 CD2         -2.5190    -2.4040    -0.5880 cd         1 EZP      -0.220000
     23 NE2         -3.7240    -2.9280    -0.9610 na         1 EZP      -0.294500
     24 CE1         -4.6850    -2.1440    -0.4440 cd         1 EZP       0.397400
     25 ND1         -4.1750    -1.1520     0.2430 nc         1 EZP      -0.693000
     26 H1           1.0990     0.1550    -2.4060 ha         1 EZP       0.136500
     27 H2           0.8330    -2.2260    -1.9830 ha         1 EZP       0.150000
     28 H3           2.8010    -1.7660     1.8160 ha         1 EZP       0.150000
     29 H4           3.0730     0.6200     1.3730 ha         1 EZP       0.136500
     30 H5           3.2070     2.3800    -0.4500 h1         1 EZP       0.049700
     31 H6           1.7560     3.3110    -2.1440 ho         1 EZP       0.483000
     32 H7           1.5030     2.4840     1.2400 h1         1 EZP       0.087700
     33 H8           0.6530     4.7110     0.9200 h1         1 EZP       0.042200
     34 H9           2.3480     4.5690     0.4420 h1         1 EZP       0.042200
     35 H10          1.2360     5.6580    -1.2160 ho         1 EZP       0.456000
     36 H11         -0.4030     2.1190    -0.9640 hn         1 EZP       0.330500
     37 H12         -2.3150     1.2450    -0.5470 h1         1 EZP       0.067700
     38 H13         -4.1280     1.0100     0.9920 hn         1 EZP       0.418000
     39 H14         -3.2230     1.5950     2.1970 hn         1 EZP       0.418000
     40 H16         -0.8510    -0.5950     0.4600 hc         1 EZP       0.057200
     41 H17         -1.8480    -0.5030     1.8990 hc         1 EZP       0.057200
     42 H18         -1.5810    -2.8530    -0.8670 h4         1 EZP       0.166000
     43 H19         -3.8660    -3.7540    -1.5200 hn         1 EZP       0.357000
     44 H20         -5.7360    -2.3380    -0.5940 h5         1 EZP       0.057100
@<TRIPOS>BOND
     1     1     2 ar  
     2     1     9 ar  
     3     1    26 1   
     4     2     3 ar  
     5     2    27 1   
     6     3     4 1   
     7     3     7 ar  
     8     4     5 1   
     9     4     6 1   
    10     7     8 ar  
    11     7    28 1   
    12     8     9 ar  
    13     8    29 1   
    14     9    10 1   
    15    10    11 1   
    16    10    12 1   
    17    10    30 1   
    18    11    31 1   
    19    12    13 1   
    20    12    15 1   
    21    12    32 1   
    22    13    14 1   
    23    13    33 1   
    24    13    34 1   
    25    14    35 1   
    26    15    16 1   
    27    15    36 1   
    28    16    17 2   
    29    16    18 1   
    30    18    19 1   
    31    18    20 1   
    32    18    37 1   
    33    19    38 1   
    34    19    39 1   
    35    20    21 1   
    36    20    40 1   
    37    20    41 1   
    38    21    22 2   
    39    21    25 1   
    40    22    23 1   
    41    22    42 1   
    42    23    24 1   
    43    23    43 1   
    44    24    25 2   
    45    24    44 1   
@<TRIPOS>SUBSTRUCTURE
     1 EZP         1 TEMP              0 ****  ****    0 ROOT
