@<TRIPOS>MOLECULE
EZP
   44    45     1     0     0
SMALL
No Charge or Current Charge


@<TRIPOS>ATOM
      1 CAG          1.5840    -0.4040    -0.9360 ca         1 EZP      -0.107500
      2 CAI          1.6370    -1.7570    -0.5590 ca         1 EZP      -0.049000
      3 CAU          2.4750    -2.1710     0.5020 ca         1 EZP      -0.181200
      4 NAY          2.5310    -3.6120     0.9110 no         1 EZP       0.695200
      5 OAF          1.8190    -4.4220     0.3010 o          1 EZP      -0.402000
      6 OAC          3.2860    -3.9290     1.8400 o          1 EZP      -0.402000
      7 CAJ          3.2580    -1.2020     1.1730 ca         1 EZP      -0.049000
      8 CAH          3.2000     0.1490     0.7890 ca         1 EZP      -0.107500
      9 CAT          2.3650     0.5630    -0.2680 ca         1 EZP      -0.035300
     10 CAW          2.3060     2.0490    -0.6480 c3         1 EZP       0.207600
     11 OAE          2.0610     2.2180    -2.0520 oh         1 EZP      -0.670000
     12 CAX          1.2330     2.8370     0.1660 c3         1 EZP       0.074700
     13 CAM          1.2080     4.3520    -0.1750 c3         1 EZP       0.141600
     14 OAD          0.8020     4.5610    -1.5430 oh         1 EZP      -0.679000
     15 NAP         -0.1140     2.2490     0.0300 ns         1 EZP      -0.498900
     16 C           -0.7200     1.4260     0.9580 c          1 EZP       0.604100
     17 O           -0.1950     1.1630     2.0340 o          1 EZP      -0.610100
     18 CA          -2.1330     0.8710     0.5430 c3         1 EZP       0.098500
     19 N           -3.2700     1.2770     1.4280 n8         1 EZP      -0.984200
     20 CB          -2.1170    -0.6710     0.4120 c3         1 EZP      -0.130700
     21 CG          -3.3480    -1.2430    -0.2400 cc         1 EZP       0.231300
     22 CD2         -3.4550    -1.7650    -1.4990 cd         1 EZP      -0.220000
     23 NE2         -4.7810    -2.1580    -1.6090 na         1 EZP      -0.294500
     24 CE1         -5.4080    -1.8570    -0.4140 cd         1 EZP       0.397400
     25 ND1         -4.5420    -1.3000     0.4230 nc         1 EZP      -0.693000
     26 H1           0.9270    -0.1080    -1.7510 ha         1 EZP       0.136500
     27 H2           1.0210    -2.4760    -1.0960 ha         1 EZP       0.150000
     28 H3           3.9120    -1.4860     1.9950 ha         1 EZP       0.150000
     29 H4           3.8060     0.8790     1.3210 ha         1 EZP       0.136500
     30 H5           3.2820     2.4920    -0.4070 h1         1 EZP       0.049700
     31 H6           1.5920     3.0940    -2.1090 ho         1 EZP       0.483000
     32 H7           1.5290     2.7660     1.2220 h1         1 EZP       0.087700
     33 H8           0.5110     4.8550     0.5090 h1         1 EZP       0.042200
     34 H9           2.2060     4.7780    -0.0020 h1         1 EZP       0.042200
     35 H10          0.6340     5.5260    -1.6500 ho         1 EZP       0.456000
     36 H11         -0.6330     2.4450    -0.8180 hn         1 EZP       0.330500
     37 H12         -2.3460     1.2710    -0.4590 h1         1 EZP       0.067700
     38 H13         -4.0470     0.6300     1.2190 hn         1 EZP       0.418000
     39 H14         -3.0330     1.0290     2.3970 hn         1 EZP       0.418000
     40 H16         -1.2420    -0.9600    -0.1820 hc         1 EZP       0.057200
     41 H17         -1.9730    -1.1250     1.4000 hc         1 EZP       0.057200
     42 H18         -2.7170    -1.8800    -2.2850 h4         1 EZP       0.166000
     43 H19         -5.2300    -2.5900    -2.4090 hn         1 EZP       0.357000
     44 H20         -6.4570    -2.0650    -0.2350 h5         1 EZP       0.057100
@<TRIPOS>BOND
     1     1     2 ar  
     2     1     9 ar  
     3     1    26 1   
     4     2     3 ar  
     5     2    27 1   
     6     3     4 1   
     7     3     7 ar  
     8     4     5 1   
     9     4     6 1   
    10     7     8 ar  
    11     7    28 1   
    12     8     9 ar  
    13     8    29 1   
    14     9    10 1   
    15    10    11 1   
    16    10    12 1   
    17    10    30 1   
    18    11    31 1   
    19    12    13 1   
    20    12    15 1   
    21    12    32 1   
    22    13    14 1   
    23    13    33 1   
    24    13    34 1   
    25    14    35 1   
    26    15    16 1   
    27    15    36 1   
    28    16    17 2   
    29    16    18 1   
    30    18    19 1   
    31    18    20 1   
    32    18    37 1   
    33    19    38 1   
    34    19    39 1   
    35    20    21 1   
    36    20    40 1   
    37    20    41 1   
    38    21    22 2   
    39    21    25 1   
    40    22    23 1   
    41    22    42 1   
    42    23    24 1   
    43    23    43 1   
    44    24    25 2   
    45    24    44 1   
@<TRIPOS>SUBSTRUCTURE
     1 EZP         1 TEMP              0 ****  ****    0 ROOT
