@<TRIPOS>MOLECULE
EZQ
   44    48     1     0     0
SMALL
bcc


@<TRIPOS>ATOM
      1 N1           7.6200    -0.2750     2.9060 nb         1 EZQ      -0.658000
      2 C2          -0.5540    -0.0640     6.8900 ca         1 EZQ      -0.081000
      3 N3          -0.0350     4.5000     2.9310 na         1 EZQ      -0.275100
      4 C4          -0.2690     0.0210     4.5120 ca         1 EZQ      -0.081000
      5 N4           1.7300     3.5340     1.6440 nb         1 EZQ      -0.674000
      6 C5           0.2790     0.1430     5.7900 ca         1 EZQ      -0.122500
      7 C6           1.6900     0.4750     5.9970 cc         1 EZQ       0.382800
      8 C           -2.4060    -0.4540     5.4480 ca         1 EZQ       0.134900
      9 C3          -1.6110    -0.2720     4.3320 ca         1 EZQ      -0.176000
     10 C1          -1.8980    -0.3620     6.7290 ca         1 EZQ      -0.176000
     11 N2           2.3740     0.0060     7.0820 nc         1 EZQ      -0.666000
     12 C14          3.5870     0.4720     6.9670 cd         1 EZQ       0.400400
     13 N            3.7380     1.2260     5.8570 na         1 EZQ      -0.181900
     14 C8           4.9500     1.9110     5.4770 c3         1 EZQ       0.083600
     15 C9           5.8580     1.1160     4.5750 ca         1 EZQ      -0.073300
     16 C13          6.9040     1.7650     3.9270 ca         1 EZQ      -0.240800
     17 C12          7.7490     1.0320     3.1120 ca         1 EZQ       0.404200
     18 C11          6.6220    -0.8900     3.5260 ca         1 EZQ       0.404200
     19 C10          5.7210    -0.2480     4.3650 ca         1 EZQ      -0.240800
     20 C7           2.5210     1.2480     5.2150 cd         1 EZQ      -0.151600
     21 C15          2.2600     2.0270     4.0060 ca         1 EZQ       0.060000
     22 C21          3.0110     1.8880     2.8440 ca         1 EZQ      -0.272300
     23 C20          2.7150     2.6510     1.7120 ca         1 EZQ       0.417200
     24 C17          1.0190     3.6600     2.7520 ca         1 EZQ       0.427800
     25 C18         -0.5060     4.3630     4.2070 cc         1 EZQ      -0.100100
     26 C19          0.2300     3.4310     4.8810 cd         1 EZQ      -0.175200
     27 C16          1.2170     2.9600     3.9670 ca         1 EZQ      -0.184100
     28 H1          -0.1500     0.0200     7.8910 ha         1 EZQ       0.144500
     29 H2          -0.4010     5.1300     2.2350 hn         1 EZQ       0.312700
     30 H3           0.3570     0.1430     3.6380 ha         1 EZQ       0.144500
     31 H4          -2.0290    -0.3650     3.3390 ha         1 EZQ       0.148000
     32 H5          -2.5390    -0.5120     7.5880 ha         1 EZQ       0.148000
     33 H6           4.4000     0.3050     7.6590 h5         1 EZQ       0.059100
     34 H7           5.4890     2.1710     6.3900 h1         1 EZQ       0.077700
     35 H8           4.6860     2.8540     4.9970 h1         1 EZQ       0.077700
     36 H9           7.0590     2.8300     4.0470 ha         1 EZQ       0.148500
     37 H10          8.5660     1.5260     2.5980 h4         1 EZQ       0.024100
     38 H11          6.5250    -1.9560     3.3490 h4         1 EZQ       0.024100
     39 H12          4.9300    -0.8230     4.8290 ha         1 EZQ       0.148500
     40 H13          3.8190     1.1710     2.7870 ha         1 EZQ       0.146000
     41 H14          3.3120     2.5220     0.8170 h4         1 EZQ       0.022100
     42 H15         -1.3450     4.9490     4.5450 h4         1 EZQ       0.168000
     43 H16          0.0770     3.1200     5.9010 ha         1 EZQ       0.168000
     44 F           -3.7100    -0.7290     5.2800 f          1 EZQ      -0.146900
@<TRIPOS>BOND
     1     1    17 ar  
     2     1    18 ar  
     3     2     6 ar  
     4     2    10 ar  
     5     2    28 1   
     6     3    24 1   
     7     3    25 1   
     8     3    29 1   
     9     4     6 ar  
    10     4     9 ar  
    11     4    30 1   
    12     5    23 ar  
    13     5    24 ar  
    14     6     7 1   
    15     7    11 1   
    16     7    20 2   
    17     8     9 ar  
    18     8    10 ar  
    19     8    44 1   
    20     9    31 1   
    21    10    32 1   
    22    11    12 2   
    23    12    13 1   
    24    12    33 1   
    25    13    14 1   
    26    13    20 1   
    27    14    15 1   
    28    14    34 1   
    29    14    35 1   
    30    15    16 ar  
    31    15    19 ar  
    32    16    17 ar  
    33    16    36 1   
    34    17    37 1   
    35    18    19 ar  
    36    18    38 1   
    37    19    39 1   
    38    20    21 1   
    39    21    22 ar  
    40    21    27 ar  
    41    22    23 ar  
    42    22    40 1   
    43    23    41 1   
    44    24    27 ar  
    45    25    26 2   
    46    25    42 1   
    47    26    27 1   
    48    26    43 1   
@<TRIPOS>SUBSTRUCTURE
     1 EZQ         1 TEMP              0 ****  ****    0 ROOT
