@<TRIPOS>MOLECULE
EZQ
   44    48     1     0     0
SMALL
No Charge or Current Charge


@<TRIPOS>ATOM
      1 N1           7.8420    -0.5010     2.9860 nb         1 EZQ      -0.658000
      2 C2          -0.5740     0.2430     6.9060 ca         1 EZQ      -0.063000
      3 N3          -0.4540     4.3210     3.0260 na         1 EZQ      -0.325400
      4 C4          -0.1480    -0.0170     4.5250 ca         1 EZQ      -0.063000
      5 N4           1.4910     3.6460     1.6790 nb         1 EZQ      -0.674000
      6 C5           0.3230     0.3070     5.8170 ca         1 EZQ      -0.122500
      7 C6           1.7430     0.5980     6.0550 cc         1 EZQ       0.317500
      8 C           -2.3890    -0.3520     5.4040 ca         1 EZQ       0.170000
      9 C3          -1.5020    -0.3330     4.3180 ca         1 EZQ      -0.158000
     10 C1          -1.9280    -0.0730     6.6980 ca         1 EZQ      -0.158000
     11 N2           2.4190     0.1200     7.1370 nc         1 EZQ      -0.666000
     12 C14          3.6720     0.5080     6.9570 cd         1 EZQ       0.400400
     13 N            3.8030     1.2270     5.7740 na         1 EZQ      -0.160500
     14 C8           5.0450     1.8950     5.3420 c3         1 EZQ       0.112900
     15 C9           6.0050     1.0310     4.5200 ca         1 EZQ      -0.073300
     16 C13          7.2500     1.5560     4.1240 ca         1 EZQ      -0.157500
     17 C12          8.1310     0.7650     3.3660 ca         1 EZQ       0.338900
     18 C11          6.6470    -1.0110     3.3610 ca         1 EZQ       0.338900
     19 C10          5.7080    -0.2890     4.1190 ca         1 EZQ      -0.157500
     20 C7           2.5470     1.2830     5.1680 cd         1 EZQ      -0.137000
     21 C15          2.1840     2.1070     3.9920 ca         1 EZQ       0.060000
     22 C21          3.0070     2.1420     2.8470 ca         1 EZQ      -0.189000
     23 C20          2.6250     2.9070     1.7250 ca         1 EZQ       0.351900
     24 C17          0.7180     3.6300     2.7780 ca         1 EZQ       0.362500
     25 C18         -0.9220     4.1070     4.3400 cc         1 EZQ      -0.150100
     26 C19          0.0070     3.2400     4.8820 cd         1 EZQ      -0.225200
     27 C16          1.0260     2.9060     3.9110 ca         1 EZQ      -0.118800
     28 H1          -0.2230     0.4530     7.9150 ha         1 EZQ       0.126500
     29 H2          -0.8950     4.9170     2.3370 hn         1 EZQ       0.363000
     30 H3           0.5330    -0.0270     3.6770 ha         1 EZQ       0.126500
     31 H4          -1.8620    -0.5680     3.3200 ha         1 EZQ       0.130000
     32 H5          -2.6180    -0.1050     7.5370 ha         1 EZQ       0.130000
     33 H6           4.5100     0.3290     7.6200 h5         1 EZQ       0.059100
     34 H7           5.5730     2.2410     6.2400 h1         1 EZQ       0.077700
     35 H8           4.7850     2.7930     4.7680 h1         1 EZQ       0.077700
     36 H9           7.5400     2.5670     4.3970 ha         1 EZQ       0.130500
     37 H10          9.0980     1.1580     3.0530 h4         1 EZQ       0.024100
     38 H11          6.4340    -2.0310     3.0430 h4         1 EZQ       0.024100
     39 H12          4.7680    -0.7670     4.3780 ha         1 EZQ       0.130500
     40 H13          3.9150     1.5530     2.7940 ha         1 EZQ       0.128000
     41 H14          3.2480     2.9220     0.8320 h4         1 EZQ       0.022100
     42 H15         -1.8110     4.5770     4.7570 h4         1 EZQ       0.218000
     43 H16         -0.0190     2.9010     5.9140 ha         1 EZQ       0.218000
     44 F           -3.6900    -0.6580     5.2040 f          1 EZQ      -0.182000
@<TRIPOS>BOND
     1     1    17 ar  
     2     1    18 ar  
     3     2     6 ar  
     4     2    10 ar  
     5     2    28 1   
     6     3    24 1   
     7     3    25 1   
     8     3    29 1   
     9     4     6 ar  
    10     4     9 ar  
    11     4    30 1   
    12     5    23 ar  
    13     5    24 ar  
    14     6     7 1   
    15     7    11 1   
    16     7    20 2   
    17     8     9 ar  
    18     8    10 ar  
    19     8    44 1   
    20     9    31 1   
    21    10    32 1   
    22    11    12 2   
    23    12    13 1   
    24    12    33 1   
    25    13    14 1   
    26    13    20 1   
    27    14    15 1   
    28    14    34 1   
    29    14    35 1   
    30    15    16 ar  
    31    15    19 ar  
    32    16    17 ar  
    33    16    36 1   
    34    17    37 1   
    35    18    19 ar  
    36    18    38 1   
    37    19    39 1   
    38    20    21 1   
    39    21    22 ar  
    40    21    27 ar  
    41    22    23 ar  
    42    22    40 1   
    43    23    41 1   
    44    24    27 ar  
    45    25    26 2   
    46    25    42 1   
    47    26    27 1   
    48    26    43 1   
@<TRIPOS>SUBSTRUCTURE
     1 EZQ         1 TEMP              0 ****  ****    0 ROOT
