@<TRIPOS>MOLECULE
EZR
   61    66     1     0     0
SMALL
abcg2


@<TRIPOS>ATOM
      1 C4          -5.4760    -0.3160    -1.3340 ca         1 EZR      -0.025000
      2 C5           5.2230    -3.1600     0.1880 ca         1 EZR      -0.154000
      3 C6           6.0140    -0.8550     0.2760 ca         1 EZR      -0.213000
      4 C7          -6.7390     0.2100    -1.5390 ca         1 EZR      -0.221000
      5 C8          -3.1460    -1.7840    -0.1060 ca         1 EZR      -0.136000
      6 C10         -0.7040    -1.5380    -0.0090 ca         1 EZR      -0.192900
      7 C13          3.6730    -1.2480     0.1810 ca         1 EZR       0.038400
      8 C15         -1.8620    -2.3290    -0.0110 ca         1 EZR      -0.045200
      9 C17         -7.1670     1.2990    -0.7750 ca         1 EZR       0.338000
     10 C20          1.7780    -2.2240     0.1330 cc         1 EZR       0.400500
     11 C21          5.5810     1.9250     0.6640 c6         1 EZR       0.159800
     12 C22          3.5940     1.6320    -0.6850 c6         1 EZR       0.159800
     13 C24          3.1080     3.0010    -0.2280 c6         1 EZR       0.159300
     14 C26         -4.5440     2.8570     2.1010 c3         1 EZR       0.147900
     15 C1           6.2480    -2.2380     0.2540 ca         1 EZR      -0.058000
     16 C2          -0.8260    -0.1460    -0.1200 ca         1 EZR      -0.027000
     17 C3          -2.0840     0.3940    -0.2230 ca         1 EZR      -0.126000
     18 C9          -6.2990     1.8280     0.1890 ca         1 EZR      -0.275000
     19 C11         -3.2560    -0.4110    -0.2160 cp         1 EZR       0.039000
     20 C12         -4.5910     0.1970    -0.3900 cp         1 EZR      -0.129000
     21 C14          3.9380    -2.6260     0.1500 ca         1 EZR      -0.049200
     22 C16          4.7300    -0.3120     0.2460 ca         1 EZR       0.356000
     23 C18         -5.0350     1.2850     0.3830 ca         1 EZR       0.200100
     24 C19          0.3560    -2.4810     0.0980 cc         1 EZR       0.332600
     25 C23          5.0510     3.2890     1.0950 c6         1 EZR       0.159300
     26 C25          4.8670     4.4770    -1.0160 c3         1 EZR       0.152100
     27 N27          2.3160    -1.0350     0.1760 nd         1 EZR      -0.567100
     28 N28         -0.1160    -3.7080     0.1550 nd         1 EZR      -0.533100
     29 N29          2.7050    -3.2170     0.1160 na         1 EZR      -0.296600
     30 N30         -1.4370    -3.6130     0.0930 na         1 EZR      -0.049400
     31 N31          4.4730     1.0500     0.3280 nh         1 EZR      -0.770400
     32 N32         -8.4340     1.8130    -0.9240 nv         1 EZR      -1.076000
     33 N33          4.1730     3.9200     0.1280 n3         1 EZR      -0.716600
     34 O34         -4.1810     1.7380     1.3190 os         1 EZR      -0.334100
     35 H4          -5.1540    -1.1490    -1.9470 ha         1 EZR       0.114000
     36 H5           5.4060    -4.2260     0.1730 ha         1 EZR       0.119000
     37 H6           6.8750    -0.2010     0.3060 ha         1 EZR       0.111000
     38 H7          -7.3880    -0.2150    -2.2950 ha         1 EZR       0.116000
     39 H8          -4.0230    -2.4180    -0.0860 ha         1 EZR       0.120000
     40 H21          6.2890     2.0330    -0.1720 h1         1 EZR       0.046700
     41 H21A         6.1380     1.4970     1.4990 h1         1 EZR       0.046700
     42 H22          2.7320     0.9870    -0.8360 h1         1 EZR       0.046700
     43 H22A         4.1190     1.7080    -1.6500 h1         1 EZR       0.046700
     44 H24          2.4920     3.4490    -1.0120 h1         1 EZR       0.059450
     45 H24A         2.4640     2.8650     0.6480 h1         1 EZR       0.059450
     46 H26         -3.6970     3.0650     2.7510 h1         1 EZR       0.041367
     47 H26A        -4.7410     3.7390     1.4870 h1         1 EZR       0.041367
     48 H26B        -5.4210     2.6580     2.7210 h1         1 EZR       0.041367
     49 H1           7.2730    -2.5850     0.2820 ha         1 EZR       0.109000
     50 H2           0.0500     0.4870    -0.1340 ha         1 EZR       0.139000
     51 H3          -2.1860     1.4640    -0.3330 ha         1 EZR       0.121000
     52 H9          -6.6410     2.6620     0.7880 ha         1 EZR       0.117000
     53 H23          4.4970     3.1630     2.0310 h1         1 EZR       0.059450
     54 H23A         5.8930     3.9520     1.3070 h1         1 EZR       0.059450
     55 H25          4.1490     4.9870    -1.6600 h1         1 EZR       0.029033
     56 H25A         5.5910     5.2190    -0.6760 h1         1 EZR       0.029033
     57 H25B         5.4080     3.7520    -1.6390 h1         1 EZR       0.029033
     58 HN29         2.5110    -4.2060     0.0930 hn         1 EZR       0.369000
     59 HN30        -1.9980    -4.4490     0.1220 hn         1 EZR       0.377000
     60 HN32        -8.8850     1.6220    -1.8040 hn         1 EZR       0.452500
     61 HN3A        -8.5670     2.7660    -0.6280 hn         1 EZR       0.452500
@<TRIPOS>BOND
     1     1     4 ar  
     2     1    20 ar  
     3     1    35 1   
     4     2    15 ar  
     5     2    21 ar  
     6     2    36 1   
     7     3    15 ar  
     8     3    22 ar  
     9     3    37 1   
    10     4     9 ar  
    11     4    38 1   
    12     5     8 ar  
    13     5    19 ar  
    14     5    39 1   
    15     6     8 ar  
    16     6    16 ar  
    17     6    24 1   
    18     7    21 ar  
    19     7    22 ar  
    20     7    27 1   
    21     8    30 1   
    22     9    18 ar  
    23     9    32 1   
    24    10    24 1   
    25    10    27 2   
    26    10    29 1   
    27    11    25 1   
    28    11    31 1   
    29    11    40 1   
    30    11    41 1   
    31    12    13 1   
    32    12    31 1   
    33    12    42 1   
    34    12    43 1   
    35    13    33 1   
    36    13    44 1   
    37    13    45 1   
    38    14    34 1   
    39    14    46 1   
    40    14    47 1   
    41    14    48 1   
    42    15    49 1   
    43    16    17 ar  
    44    16    50 1   
    45    17    19 ar  
    46    17    51 1   
    47    18    23 ar  
    48    18    52 1   
    49    19    20 1   
    50    20    23 ar  
    51    21    29 1   
    52    22    31 1   
    53    23    34 1   
    54    24    28 2   
    55    25    33 1   
    56    25    53 1   
    57    25    54 1   
    58    26    33 1   
    59    26    55 1   
    60    26    56 1   
    61    26    57 1   
    62    28    30 1   
    63    29    58 1   
    64    30    59 1   
    65    32    60 1   
    66    32    61 1   
@<TRIPOS>SUBSTRUCTURE
     1 EZR         1 TEMP              0 ****  ****    0 ROOT
