@<TRIPOS>MOLECULE
EZR
   61    66     1     0     0
SMALL
No Charge or Current Charge


@<TRIPOS>ATOM
      1 C4          -5.5910    -0.3190    -1.3480 ca         1 EZR      -0.025000
      2 C5           5.1860    -3.1400     0.3550 ca         1 EZR      -0.154000
      3 C6           6.0600    -0.8560     0.3360 ca         1 EZR      -0.213000
      4 C7          -6.8640     0.2560    -1.4940 ca         1 EZR      -0.221000
      5 C8          -3.1990    -1.8740    -0.2140 ca         1 EZR      -0.136000
      6 C10         -0.7930    -1.6680    -0.0710 ca         1 EZR      -0.192900
      7 C13          3.6700    -1.2420     0.1810 ca         1 EZR       0.038400
      8 C15         -1.9180    -2.4300    -0.1150 ca         1 EZR      -0.045200
      9 C17         -7.2470     1.3270    -0.6830 ca         1 EZR       0.338000
     10 C20          1.7220    -2.2260     0.1010 cc         1 EZR       0.400500
     11 C21          5.4770     2.0360     0.8670 c6         1 EZR       0.159800
     12 C22          3.8670     1.6960    -1.0240 c6         1 EZR       0.159800
     13 C24          3.2430     3.0960    -0.7000 c6         1 EZR       0.159300
     14 C26         -4.5160     2.7820     2.2960 c3         1 EZR       0.147900
     15 C1           6.2770    -2.2520     0.4010 ca         1 EZR      -0.058000
     16 C2          -0.8580    -0.2670    -0.1260 ca         1 EZR      -0.027000
     17 C3          -2.1340     0.3270    -0.2260 ca         1 EZR      -0.126000
     18 C9          -6.3720     1.8300     0.2810 ca         1 EZR      -0.275000
     19 C11         -3.3250    -0.4590    -0.2640 cp         1 EZR       0.039000
     20 C12         -4.6760     0.1740    -0.3870 cp         1 EZR      -0.129000
     21 C14          3.9070    -2.5890     0.2460 ca         1 EZR      -0.049200
     22 C16          4.7540    -0.3190     0.2230 ca         1 EZR       0.356000
     23 C18         -5.0910     1.2590     0.4340 ca         1 EZR       0.200100
     24 C19          0.3170    -2.6030     0.0290 cc         1 EZR       0.332600
     25 C23          4.8120     3.4280     1.1390 c6         1 EZR       0.159300
     26 C25          5.2420     4.5400    -1.0470 c3         1 EZR       0.152100
     27 N27          2.2880    -0.9970     0.0940 nd         1 EZR      -0.567100
     28 N28         -0.1350    -3.8780     0.0450 nd         1 EZR      -0.533100
     29 N29          2.7010    -3.2140     0.1930 na         1 EZR      -0.296600
     30 N30         -1.5260    -3.7470    -0.0450 na         1 EZR      -0.049400
     31 N31          4.5570     1.0890     0.1590 nh         1 EZR      -0.770400
     32 N32         -8.4820     1.8820    -0.8270 nv         1 EZR      -1.076000
     33 N33          4.2220     4.0500    -0.0890 n3         1 EZR      -0.716600
     34 O34         -4.2050     1.7020     1.3990 os         1 EZR      -0.334100
     35 H4          -5.3050    -1.1470    -1.9930 ha         1 EZR       0.114000
     36 H5           5.3370    -4.2170     0.4060 ha         1 EZR       0.119000
     37 H6           6.9190    -0.1940     0.3640 ha         1 EZR       0.111000
     38 H7          -7.5480    -0.1360    -2.2410 ha         1 EZR       0.116000
     39 H8          -4.0790    -2.5130    -0.2420 ha         1 EZR       0.120000
     40 H21          6.3890     2.1860     0.2710 h1         1 EZR       0.046700
     41 H21A         5.7870     1.6100     1.8330 h1         1 EZR       0.046700
     42 H22          3.0650     1.0410    -1.3890 h1         1 EZR       0.046700
     43 H22A         4.5840     1.8070    -1.8510 h1         1 EZR       0.046700
     44 H24          2.8140     3.5170    -1.6210 h1         1 EZR       0.059450
     45 H24A         2.4020     2.9380    -0.0090 h1         1 EZR       0.059450
     46 H26         -3.6730     2.9660     2.9730 h1         1 EZR       0.041367
     47 H26A        -4.7130     3.7070     1.7390 h1         1 EZR       0.041367
     48 H26B        -5.3950     2.5410     2.9060 h1         1 EZR       0.041367
     49 H1           7.2900    -2.6410     0.4840 ha         1 EZR       0.109000
     50 H2           0.0360     0.3510    -0.0980 ha         1 EZR       0.139000
     51 H3          -2.2060     1.4100    -0.2850 ha         1 EZR       0.121000
     52 H9          -6.6970     2.6560     0.9040 ha         1 EZR       0.117000
     53 H23          4.0230     3.2840     1.8920 h1         1 EZR       0.059450
     54 H23A         5.5560     4.0980     1.5940 h1         1 EZR       0.059450
     55 H25          4.7610     5.0300    -1.9040 h1         1 EZR       0.029033
     56 H25A         5.9010     5.2740    -0.5660 h1         1 EZR       0.029033
     57 H25B         5.8650     3.7200    -1.4290 h1         1 EZR       0.029033
     58 HN29         2.5220    -4.2100     0.2170 hn         1 EZR       0.369000
     59 HN30        -2.1410    -4.5590    -0.0550 hn         1 EZR       0.377000
     60 HN32        -9.0530     1.6290    -1.6300 hn         1 EZR       0.452500
     61 HN3A        -8.6970     2.7590    -0.3570 hn         1 EZR       0.452500
@<TRIPOS>BOND
     1     1     4 ar  
     2     1    20 ar  
     3     1    35 1   
     4     2    15 ar  
     5     2    21 ar  
     6     2    36 1   
     7     3    15 ar  
     8     3    22 ar  
     9     3    37 1   
    10     4     9 ar  
    11     4    38 1   
    12     5     8 ar  
    13     5    19 ar  
    14     5    39 1   
    15     6     8 ar  
    16     6    16 ar  
    17     6    24 1   
    18     7    21 ar  
    19     7    22 ar  
    20     7    27 1   
    21     8    30 1   
    22     9    18 ar  
    23     9    32 1   
    24    10    24 1   
    25    10    27 2   
    26    10    29 1   
    27    11    25 1   
    28    11    31 1   
    29    11    40 1   
    30    11    41 1   
    31    12    13 1   
    32    12    31 1   
    33    12    42 1   
    34    12    43 1   
    35    13    33 1   
    36    13    44 1   
    37    13    45 1   
    38    14    34 1   
    39    14    46 1   
    40    14    47 1   
    41    14    48 1   
    42    15    49 1   
    43    16    17 ar  
    44    16    50 1   
    45    17    19 ar  
    46    17    51 1   
    47    18    23 ar  
    48    18    52 1   
    49    19    20 1   
    50    20    23 ar  
    51    21    29 1   
    52    22    31 1   
    53    23    34 1   
    54    24    28 2   
    55    25    33 1   
    56    25    53 1   
    57    25    54 1   
    58    26    33 1   
    59    26    55 1   
    60    26    56 1   
    61    26    57 1   
    62    28    30 1   
    63    29    58 1   
    64    30    59 1   
    65    32    60 1   
    66    32    61 1   
@<TRIPOS>SUBSTRUCTURE
     1 EZR         1 TEMP              0 ****  ****    0 ROOT
