@<TRIPOS>MOLECULE
EZS
   30    31     1     0     0
SMALL
No Charge or Current Charge


@<TRIPOS>ATOM
      1 C11          3.9830     1.0020    -0.0220 c          1 EZS       0.514600
      2 C12          5.0060     0.7520     1.0880 c3         1 EZS      -0.182100
      3 C15          1.2730    -1.4030     0.3410 cc         1 EZS       0.410800
      4 C16          0.5230    -2.5410     0.9720 c3         1 EZS      -0.122400
      5 C01         -1.6640     0.8950    -0.2730 ca         1 EZS      -0.065000
      6 C02         -2.8190     1.3660     0.3750 ca         1 EZS      -0.151500
      7 C03         -3.9530     0.5460     0.4690 ca         1 EZS       0.185000
      8 C04         -3.9410    -0.7440    -0.0820 ca         1 EZS      -0.151500
      9 C05         -2.7870    -1.2190    -0.7300 ca         1 EZS      -0.065000
     10 C06         -1.6410    -0.4030    -0.8270 ca         1 EZS      -0.137300
     11 C07         -0.3910    -0.9290    -1.5290 c3         1 EZS       0.121900
     12 C09          1.7970     0.2680    -1.0280 cc         1 EZS      -0.150000
     13 C10          2.7690     0.1140    -0.0660 cd         1 EZS       0.146500
     14 N08          0.8500    -0.7000    -0.7690 na         1 EZS      -0.167500
     15 N14          2.4290    -0.9350     0.7830 nd         1 EZS      -0.651000
     16 O13          4.1720     1.9030    -0.8350 o          1 EZS      -0.546100
     17 H1           5.3280    -0.2950     1.0430 hc         1 EZS       0.063367
     18 H2           5.8580     1.4400     1.0470 hc         1 EZS       0.063367
     19 H3           4.4950     0.7940     2.0560 hc         1 EZS       0.063367
     20 H4          -0.4670    -2.2120     1.3090 hc         1 EZS       0.056033
     21 H5           0.3880    -3.3610     0.2570 hc         1 EZS       0.056033
     22 H6           1.0610    -2.9360     1.8410 hc         1 EZS       0.056033
     23 H7          -0.7900     1.5390    -0.3450 ha         1 EZS       0.120000
     24 H8          -2.8370     2.3660     0.8020 ha         1 EZS       0.137000
     25 H9          -4.8230    -1.3730    -0.0050 ha         1 EZS       0.137000
     26 H10         -2.7850    -2.2210    -1.1550 ha         1 EZS       0.120000
     27 H11         -0.4910    -2.0050    -1.7170 h1         1 EZS       0.069200
     28 H12         -0.2990    -0.4360    -2.5050 h1         1 EZS       0.069200
     29 H13          1.7200     0.9740    -1.8470 h4         1 EZS       0.170000
     30 F17         -5.0620     1.0000     1.0920 f          1 EZS      -0.173000
@<TRIPOS>BOND
     1     1     2 1   
     2     1    13 1   
     3     1    16 2   
     4     2    17 1   
     5     2    18 1   
     6     2    19 1   
     7     3     4 1   
     8     3    14 1   
     9     3    15 2   
    10     4    20 1   
    11     4    21 1   
    12     4    22 1   
    13     5     6 ar  
    14     5    10 ar  
    15     5    23 1   
    16     6     7 ar  
    17     6    24 1   
    18     7     8 ar  
    19     7    30 1   
    20     8     9 ar  
    21     8    25 1   
    22     9    10 ar  
    23     9    26 1   
    24    10    11 1   
    25    11    14 1   
    26    11    27 1   
    27    11    28 1   
    28    12    13 2   
    29    12    14 1   
    30    12    29 1   
    31    13    15 1   
@<TRIPOS>SUBSTRUCTURE
     1 EZS         1 TEMP              0 ****  ****    0 ROOT
