@<TRIPOS>MOLECULE
EZS
   30    31     1     0     0
SMALL
abcg2


@<TRIPOS>ATOM
      1 C11          3.9060     0.9860     0.0680 c          1 EZS       0.514600
      2 C12          4.8200     0.6230     1.2040 c3         1 EZS      -0.182100
      3 C15          1.2660    -1.3690     0.2660 cc         1 EZS       0.410800
      4 C16          0.5290    -2.5250     0.8340 c3         1 EZS      -0.122400
      5 C01         -1.6960     0.9590    -0.4830 ca         1 EZS      -0.065000
      6 C02         -2.8050     1.4370     0.1960 ca         1 EZS      -0.151500
      7 C03         -3.8170     0.5510     0.5180 ca         1 EZS       0.185000
      8 C04         -3.7540    -0.7870     0.1840 ca         1 EZS      -0.151500
      9 C05         -2.6330    -1.2460    -0.4940 ca         1 EZS      -0.065000
     10 C06         -1.5960    -0.3860    -0.8330 ca         1 EZS      -0.137300
     11 C07         -0.3870    -0.8980    -1.5710 c3         1 EZS       0.121900
     12 C09          1.7500     0.3020    -1.0760 cc         1 EZS      -0.150000
     13 C10          2.7080     0.1660    -0.1030 cd         1 EZS       0.146500
     14 N08          0.8450    -0.6760    -0.8350 na         1 EZS      -0.167500
     15 N14          2.3880    -0.8810     0.7190 nd         1 EZS      -0.651000
     16 O13          4.1410     1.9130    -0.6870 o          1 EZS      -0.546100
     17 H1           5.2250    -0.3790     1.0560 hc         1 EZS       0.063367
     18 H2           5.6430     1.3310     1.2800 hc         1 EZS       0.063367
     19 H3           4.2740     0.6000     2.1480 hc         1 EZS       0.063367
     20 H4          -0.4560    -2.2390     1.2060 hc         1 EZS       0.056033
     21 H5           0.3850    -3.3160     0.0960 hc         1 EZS       0.056033
     22 H6           1.0980    -2.9360     1.6640 hc         1 EZS       0.056033
     23 H7          -0.9040     1.6510    -0.7410 ha         1 EZS       0.120000
     24 H8          -2.8820     2.4820     0.4670 ha         1 EZS       0.137000
     25 H9          -4.5580    -1.4610     0.4500 ha         1 EZS       0.137000
     26 H10         -2.5720    -2.2950    -0.7590 ha         1 EZS       0.120000
     27 H11         -0.4890    -1.9640    -1.7780 h1         1 EZS       0.069200
     28 H12         -0.2810    -0.4000    -2.5350 h1         1 EZS       0.069200
     29 H13          1.6470     0.9920    -1.8970 h4         1 EZS       0.170000
     30 F17         -4.8930     1.0090     1.1750 f          1 EZS      -0.173000
@<TRIPOS>BOND
     1     1     2 1   
     2     1    13 1   
     3     1    16 2   
     4     2    17 1   
     5     2    18 1   
     6     2    19 1   
     7     3     4 1   
     8     3    14 1   
     9     3    15 2   
    10     4    20 1   
    11     4    21 1   
    12     4    22 1   
    13     5     6 ar  
    14     5    10 ar  
    15     5    23 1   
    16     6     7 ar  
    17     6    24 1   
    18     7     8 ar  
    19     7    30 1   
    20     8     9 ar  
    21     8    25 1   
    22     9    10 ar  
    23     9    26 1   
    24    10    11 1   
    25    11    14 1   
    26    11    27 1   
    27    11    28 1   
    28    12    13 2   
    29    12    14 1   
    30    12    29 1   
    31    13    15 1   
@<TRIPOS>SUBSTRUCTURE
     1 EZS         1 TEMP              0 ****  ****    0 ROOT
