@<TRIPOS>MOLECULE
EZT
   61    65     1     0     0
SMALL
No Charge or Current Charge


@<TRIPOS>ATOM
      1 C18         -0.5440    -6.6190     3.7100 c3         1 EZT      -0.077100
      2 C13          0.7840    -5.9430     4.2280 c5         1 EZT      -0.071000
      3 C12          0.4500    -4.4380     4.4950 c6         1 EZT      -0.064400
      4 C11          0.2040    -3.6480     3.1720 c6         1 EZT      -0.069400
      5 C9           1.3860    -3.7930     2.1500 c6         1 EZT      -0.004400
      6 C10          1.2020    -2.9980     0.8300 ca         1 EZT      -0.102300
      7 C1           0.5450    -1.7440     0.8230 ca         1 EZT      -0.074000
      8 C2           0.4000    -1.0140    -0.3680 ca         1 EZT      -0.146000
      9 C3           0.9170    -1.5150    -1.5670 ca         1 EZT       0.139100
     10 O3           0.7720    -0.8030    -2.7190 oh         1 EZT      -0.534100
     11 C4           1.5900    -2.7430    -1.5780 ca         1 EZT      -0.208000
     12 C5           1.7470    -3.4840    -0.3900 ca         1 EZT      -0.030300
     13 C6           2.4960    -4.8200    -0.4740 c6         1 EZT      -0.034100
     14 C7           2.8890    -5.4090     0.8950 c6         1 EZT      -0.069400
     15 C8           1.7040    -5.3020     1.8790 c6         1 EZT      -0.049700
     16 C14          1.9810    -6.0290     3.2260 c5         1 EZT      -0.058700
     17 C15          2.2750    -7.5560     3.2000 c5         1 EZT      -0.070400
     18 C16          2.0320    -8.0100     4.6850 c5         1 EZT      -0.066400
     19 C17          1.4140    -6.7650     5.4300 c5         1 EZT       0.217200
     20 O17          0.4290    -7.1470     6.3860 oh         1 EZT      -0.646000
     21 C19          2.5500    -6.0140     6.1530 c2         1 EZT      -0.216200
     22 C20          3.0710    -6.6040     7.2590 ce         1 EZT      -0.180200
     23 C21          4.1880    -6.0320     8.0670 ca         1 EZT       0.005200
     24 C22          4.2200    -4.6380     8.2810 ca         1 EZT      -0.118000
     25 C23          5.2380    -4.0490     9.0450 ca         1 EZT      -0.079000
     26 C24          6.2380    -4.8520     9.6070 ca         1 EZT      -0.118000
     27 C25          6.2220    -6.2410     9.4040 ca         1 EZT      -0.062000
     28 C26          5.2050    -6.8520     8.6300 ca         1 EZT      -0.188300
     29 C27          5.2270    -8.3780     8.4090 c3         1 EZT       0.356300
     30 F02          6.3700    -8.9580     8.8420 f          1 EZT      -0.113667
     31 F03          4.2160    -8.9910     9.0650 f          1 EZT      -0.113667
     32 F01          5.1120    -8.7050     7.1020 f          1 EZT      -0.113667
     33 H181        -1.3620    -6.4760     4.4260 hc         1 EZT       0.038033
     34 H182        -0.8900    -6.2090     2.7560 hc         1 EZT       0.038033
     35 H183        -0.4470    -7.7000     3.5650 hc         1 EZT       0.038033
     36 H121         1.2670    -3.9410     5.0300 hc         1 EZT       0.039700
     37 H122        -0.4270    -4.3520     5.1500 hc         1 EZT       0.039700
     38 H111        -0.7380    -3.9570     2.7020 hc         1 EZT       0.044200
     39 H112         0.0690    -2.5970     3.4510 hc         1 EZT       0.044200
     40 H9           2.2700    -3.3580     2.6390 hc         1 EZT       0.049700
     41 H1           0.1460    -1.3120     1.7350 ha         1 EZT       0.112000
     42 H2          -0.1110    -0.0550    -0.3580 ha         1 EZT       0.128000
     43 HO3          1.1960    -1.3060    -3.4470 ho         1 EZT       0.463000
     44 H4           1.9980    -3.1300    -2.5080 ha         1 EZT       0.109000
     45 H61          1.8590    -5.5420    -1.0040 hc         1 EZT       0.049200
     46 H62          3.3990    -4.7050    -1.0900 hc         1 EZT       0.049200
     47 H71          3.1960    -6.4550     0.7620 hc         1 EZT       0.044200
     48 H72          3.7610    -4.8740     1.2960 hc         1 EZT       0.044200
     49 H8           0.8340    -5.7680     1.3970 hc         1 EZT       0.057700
     50 H14          2.8650    -5.5100     3.6130 hc         1 EZT       0.043700
     51 H151         3.3000    -7.7660     2.8760 hc         1 EZT       0.046200
     52 H152         1.6120    -8.0860     2.5070 hc         1 EZT       0.046200
     53 H161         1.3520    -8.8680     4.7110 hc         1 EZT       0.060200
     54 H162         2.9620    -8.3530     5.1530 hc         1 EZT       0.060200
     55 H17          0.2110    -6.3310     6.8820 ho         1 EZT       0.446000
     56 H19          2.9580    -5.0710     5.7930 ha         1 EZT       0.178000
     57 H20          2.6880    -7.5640     7.6070 ha         1 EZT       0.199000
     58 H22          3.4410    -4.0050     7.8650 ha         1 EZT       0.119000
     59 H23          5.2470    -2.9730     9.2040 ha         1 EZT       0.119000
     60 H24          7.0270    -4.3990    10.2030 ha         1 EZT       0.122000
     61 H25          7.0130    -6.8360     9.8550 ha         1 EZT       0.131000
@<TRIPOS>BOND
     1     1     2 1   
     2     1    33 1   
     3     1    34 1   
     4     1    35 1   
     5     2     3 1   
     6     2    16 1   
     7     2    19 1   
     8     3     4 1   
     9     3    36 1   
    10     3    37 1   
    11     4     5 1   
    12     4    38 1   
    13     4    39 1   
    14     5     6 1   
    15     5    15 1   
    16     5    40 1   
    17     6     7 ar  
    18     6    12 ar  
    19     7     8 ar  
    20     7    41 1   
    21     8     9 ar  
    22     8    42 1   
    23     9    10 1   
    24     9    11 ar  
    25    10    43 1   
    26    11    12 ar  
    27    11    44 1   
    28    12    13 1   
    29    13    14 1   
    30    13    45 1   
    31    13    46 1   
    32    14    15 1   
    33    14    47 1   
    34    14    48 1   
    35    15    16 1   
    36    15    49 1   
    37    16    17 1   
    38    16    50 1   
    39    17    18 1   
    40    17    51 1   
    41    17    52 1   
    42    18    19 1   
    43    18    53 1   
    44    18    54 1   
    45    19    20 1   
    46    19    21 1   
    47    20    55 1   
    48    21    22 2   
    49    21    56 1   
    50    22    23 1   
    51    22    57 1   
    52    23    24 ar  
    53    23    28 ar  
    54    24    25 ar  
    55    24    58 1   
    56    25    26 ar  
    57    25    59 1   
    58    26    27 ar  
    59    26    60 1   
    60    27    28 ar  
    61    27    61 1   
    62    28    29 1   
    63    29    30 1   
    64    29    31 1   
    65    29    32 1   
@<TRIPOS>SUBSTRUCTURE
     1 EZT         1 TEMP              0 ****  ****    0 ROOT
