@<TRIPOS>MOLECULE
EZT
   61    65     1     0     0
SMALL
bcc


@<TRIPOS>ATOM
      1 C18         -0.2560    -6.7370     3.5910 c3         1 EZT      -0.077100
      2 C13          1.0850    -6.1730     4.0830 c5         1 EZT      -0.071000
      3 C12          0.8930    -4.7340     4.5520 c6         1 EZT      -0.064400
      4 C11          0.5390    -3.8110     3.3820 c6         1 EZT      -0.069400
      5 C9           1.5600    -3.9040     2.2400 c6         1 EZT      -0.004400
      6 C10          1.2480    -2.9900     1.0690 ca         1 EZT      -0.102300
      7 C1           0.6400    -1.7480     1.2620 ca         1 EZT      -0.092000
      8 C2           0.3610    -0.8830     0.2180 ca         1 EZT      -0.164000
      9 C3           0.6980    -1.2510    -1.0810 ca         1 EZT       0.139100
     10 O3           0.4100    -0.3920    -2.0830 oh         1 EZT      -0.495100
     11 C4           1.3130    -2.4760    -1.2950 ca         1 EZT      -0.226000
     12 C5           1.5930    -3.3440    -0.2400 ca         1 EZT      -0.030300
     13 C6           2.2480    -4.6630    -0.5650 c6         1 EZT      -0.034100
     14 C7           2.7960    -5.3810     0.6580 c6         1 EZT      -0.069400
     15 C8           1.7640    -5.3570     1.7750 c6         1 EZT      -0.049700
     16 C14          2.1490    -6.2010     2.9770 c5         1 EZT      -0.058700
     17 C15          2.4420    -7.6900     2.7920 c5         1 EZT      -0.070400
     18 C16          2.2520    -8.2980     4.1990 c5         1 EZT      -0.066400
     19 C17          1.6910    -7.1730     5.1150 c5         1 EZT       0.194000
     20 O17          0.7390    -7.7310     5.9870 oh         1 EZT      -0.583800
     21 C19          2.8170    -6.5420     5.8920 c2         1 EZT      -0.166200
     22 C20          2.9670    -6.5990     7.2150 ce         1 EZT      -0.130200
     23 C21          4.0760    -5.9350     7.9210 ca         1 EZT       0.005200
     24 C22          4.5080    -4.6810     7.4880 ca         1 EZT      -0.136000
     25 C23          5.5550    -4.0180     8.1070 ca         1 EZT      -0.097000
     26 C24          6.1920    -4.5930     9.1950 ca         1 EZT      -0.136000
     27 C25          5.7750    -5.8330     9.6520 ca         1 EZT      -0.080000
     28 C26          4.7290    -6.5030     9.0280 ca         1 EZT      -0.188300
     29 C27          4.3150    -7.8490     9.5410 c3         1 EZT       0.720200
     30 F02          5.1150    -8.2960    10.5140 f          1 EZT      -0.234967
     31 F03          3.0710    -7.8340    10.0510 f          1 EZT      -0.234967
     32 F01          4.3230    -8.7810     8.5790 f          1 EZT      -0.234967
     33 H181        -1.0140    -6.6810     4.3720 hc         1 EZT       0.038033
     34 H182        -0.6360    -6.1740     2.7400 hc         1 EZT       0.038033
     35 H183        -0.1870    -7.7780     3.2750 hc         1 EZT       0.038033
     36 H121         1.8150    -4.3650     5.0140 hc         1 EZT       0.039700
     37 H122         0.1170    -4.6660     5.3220 hc         1 EZT       0.039700
     38 H111        -0.4620    -4.0360     3.0020 hc         1 EZT       0.044200
     39 H112         0.4950    -2.7900     3.7650 hc         1 EZT       0.044200
     40 H9           2.5250    -3.5840     2.6620 hc         1 EZT       0.049700
     41 H1           0.3690    -1.4300     2.2600 ha         1 EZT       0.130000
     42 H2          -0.1150     0.0710     0.4100 ha         1 EZT       0.146000
     43 HO3          0.7000    -0.7540    -2.9270 ho         1 EZT       0.424000
     44 H4           1.5840    -2.7730    -2.3040 ha         1 EZT       0.127000
     45 H61          1.5080    -5.3070    -1.0540 hc         1 EZT       0.049200
     46 H62          3.0350    -4.5050    -1.3060 hc         1 EZT       0.049200
     47 H71          3.0540    -6.4070     0.3870 hc         1 EZT       0.044200
     48 H72          3.7200    -4.9020     1.0000 hc         1 EZT       0.044200
     49 H8           0.8200    -5.7290     1.3560 hc         1 EZT       0.057700
     50 H14          3.0630    -5.7410     3.3780 hc         1 EZT       0.043700
     51 H151         3.4460    -7.8690     2.4050 hc         1 EZT       0.046200
     52 H152         1.7460    -8.1360     2.0770 hc         1 EZT       0.046200
     53 H161         1.5410    -9.1250     4.1820 hc         1 EZT       0.060200
     54 H162         3.1860    -8.6980     4.5970 hc         1 EZT       0.060200
     55 H17          0.3410    -7.0210     6.5020 ho         1 EZT       0.407000
     56 H19          3.5780    -6.0380     5.3050 ha         1 EZT       0.128000
     57 H20          2.2460    -7.1500     7.8060 ha         1 EZT       0.149000
     58 H22          3.9940    -4.2060     6.6610 ha         1 EZT       0.137000
     59 H23          5.8610    -3.0440     7.7470 ha         1 EZT       0.137000
     60 H24          7.0040    -4.0810     9.6920 ha         1 EZT       0.140000
     61 H25          6.2820    -6.2720    10.5010 ha         1 EZT       0.149000
@<TRIPOS>BOND
     1     1     2 1   
     2     1    33 1   
     3     1    34 1   
     4     1    35 1   
     5     2     3 1   
     6     2    16 1   
     7     2    19 1   
     8     3     4 1   
     9     3    36 1   
    10     3    37 1   
    11     4     5 1   
    12     4    38 1   
    13     4    39 1   
    14     5     6 1   
    15     5    15 1   
    16     5    40 1   
    17     6     7 ar  
    18     6    12 ar  
    19     7     8 ar  
    20     7    41 1   
    21     8     9 ar  
    22     8    42 1   
    23     9    10 1   
    24     9    11 ar  
    25    10    43 1   
    26    11    12 ar  
    27    11    44 1   
    28    12    13 1   
    29    13    14 1   
    30    13    45 1   
    31    13    46 1   
    32    14    15 1   
    33    14    47 1   
    34    14    48 1   
    35    15    16 1   
    36    15    49 1   
    37    16    17 1   
    38    16    50 1   
    39    17    18 1   
    40    17    51 1   
    41    17    52 1   
    42    18    19 1   
    43    18    53 1   
    44    18    54 1   
    45    19    20 1   
    46    19    21 1   
    47    20    55 1   
    48    21    22 2   
    49    21    56 1   
    50    22    23 1   
    51    22    57 1   
    52    23    24 ar  
    53    23    28 ar  
    54    24    25 ar  
    55    24    58 1   
    56    25    26 ar  
    57    25    59 1   
    58    26    27 ar  
    59    26    60 1   
    60    27    28 ar  
    61    27    61 1   
    62    28    29 1   
    63    29    30 1   
    64    29    31 1   
    65    29    32 1   
@<TRIPOS>SUBSTRUCTURE
     1 EZT         1 TEMP              0 ****  ****    0 ROOT
