@<TRIPOS>MOLECULE
EZU
   51    55     1     0     0
SMALL
No Charge or Current Charge


@<TRIPOS>ATOM
      1 N1           0.4190   -22.8090   -24.0240 ns         1 EZU      -0.462400
      2 C2           0.5120   -23.3320   -25.2730 cc         1 EZU       0.739800
      3 N3          -0.0910   -24.4320   -25.6990 nd         1 EZU      -0.706100
      4 C4          -0.8970   -25.0240   -24.7370 cd         1 EZU       0.181400
      5 C5          -1.0180   -24.5230   -23.4990 cc         1 EZU      -0.369600
      6 C6          -0.3360   -23.3410   -23.0380 c          1 EZU       0.635600
      7 N7          -1.7210   -26.1510   -24.7830 na         1 EZU       0.131800
      8 N8          -2.3640   -26.3590   -23.5550 nd         1 EZU      -0.518800
      9 C9          -1.9060   -25.3590   -22.8150 cc         1 EZU       0.324900
     10 O10         -0.4160   -22.8630   -21.9190 o          1 EZU      -0.535000
     11 C11         -1.9720   -27.0190   -25.9420 c5         1 EZU       0.092300
     12 N12          1.2900   -22.6630   -26.1570 nu         1 EZU      -0.916400
     13 C13          1.3900   -22.9630   -27.6220 c3         1 EZU       0.177500
     14 C14          0.0370   -22.8190   -28.4170 c          1 EZU       0.627100
     15 C15          2.5040   -22.1010   -28.2500 c3         1 EZU      -0.109100
     16 N16         -0.0710   -23.8240   -29.4370 nj         1 EZU      -0.420800
     17 O17         -0.7410   -21.9190   -28.0860 o          1 EZU      -0.597100
     18 C18         -0.8610   -23.0940   -30.5450 cy         1 EZU       0.126000
     19 C19         -1.9630   -24.0330   -30.0840 cy         1 EZU      -0.173000
     20 C20         -1.2650   -24.6180   -28.8730 cy         1 EZU       0.126000
     21 C21         -3.3220   -23.4050   -29.8660 cy         1 EZU       0.158100
     22 O22         -3.6780   -24.1280   -31.1450 oq         1 EZU      -0.444000
     23 C23         -2.4550   -25.0160   -31.1250 cy         1 EZU       0.158100
     24 C24         -3.3550   -26.8270   -26.6160 c5         1 EZU      -0.087400
     25 C25         -3.3650   -27.9670   -27.6750 c5         1 EZU      -0.079900
     26 C26         -2.4800   -29.0970   -27.0530 c5         1 EZU      -0.079900
     27 C27         -2.0510   -28.5430   -25.6640 c5         1 EZU      -0.087400
     28 H1           0.9390   -21.9810   -23.7910 hn         1 EZU       0.319500
     29 H2          -2.2430   -25.2660   -21.7910 h4         1 EZU       0.048100
     30 H3          -1.1760   -26.8280   -26.6740 h1         1 EZU       0.091700
     31 H4           1.5390   -21.7260   -25.8540 hn         1 EZU       0.502000
     32 H5           1.6930   -24.0130   -27.7420 h1         1 EZU       0.094700
     33 H6           3.4590   -22.2670   -27.7380 hc         1 EZU       0.053367
     34 H7           2.6360   -22.3610   -29.3070 hc         1 EZU       0.053367
     35 H8           2.2540   -21.0350   -28.1890 hc         1 EZU       0.053367
     36 H9          -0.4660   -23.2960   -31.5470 h1         1 EZU       0.059950
     37 H10         -1.0490   -22.0210   -30.4140 h1         1 EZU       0.059950
     38 H11         -1.6670   -24.2970   -27.9030 h1         1 EZU       0.059950
     39 H12         -1.1090   -25.7020   -28.9010 h1         1 EZU       0.059950
     40 H13         -3.3840   -22.3140   -29.9630 h1         1 EZU       0.058450
     41 H14         -3.8900   -23.7900   -29.0120 h1         1 EZU       0.058450
     42 H15         -2.6930   -26.0200   -30.7540 h1         1 EZU       0.058450
     43 H16         -1.9260   -25.0310   -32.0840 h1         1 EZU       0.058450
     44 H17         -3.4680   -25.8370   -27.0700 hc         1 EZU       0.056700
     45 H18         -4.1740   -26.9450   -25.8950 hc         1 EZU       0.056700
     46 H19         -2.9410   -27.6240   -28.6270 hc         1 EZU       0.047700
     47 H20         -4.3840   -28.3100   -27.8880 hc         1 EZU       0.047700
     48 H21         -3.0230   -30.0440   -26.9610 hc         1 EZU       0.047700
     49 H22         -1.6050   -29.2930   -27.6840 hc         1 EZU       0.047700
     50 H23         -2.7950   -28.7820   -24.8940 hc         1 EZU       0.056700
     51 H24         -1.0930   -28.9570   -25.3290 hc         1 EZU       0.056700
@<TRIPOS>BOND
     1     1     2 1   
     2     1     6 1   
     3     1    28 1   
     4     2     3 2   
     5     2    12 1   
     6     3     4 1   
     7     4     5 2   
     8     4     7 1   
     9     5     6 1   
    10     5     9 1   
    11     6    10 2   
    12     7     8 1   
    13     7    11 1   
    14     8     9 2   
    15     9    29 1   
    16    11    24 1   
    17    11    27 1   
    18    11    30 1   
    19    12    13 1   
    20    12    31 1   
    21    13    14 1   
    22    13    15 1   
    23    13    32 1   
    24    14    16 1   
    25    14    17 2   
    26    15    33 1   
    27    15    34 1   
    28    15    35 1   
    29    16    18 1   
    30    16    20 1   
    31    18    19 1   
    32    18    36 1   
    33    18    37 1   
    34    19    20 1   
    35    19    21 1   
    36    19    23 1   
    37    20    38 1   
    38    20    39 1   
    39    21    22 1   
    40    21    40 1   
    41    21    41 1   
    42    22    23 1   
    43    23    42 1   
    44    23    43 1   
    45    24    25 1   
    46    24    44 1   
    47    24    45 1   
    48    25    26 1   
    49    25    46 1   
    50    25    47 1   
    51    26    27 1   
    52    26    48 1   
    53    26    49 1   
    54    27    50 1   
    55    27    51 1   
@<TRIPOS>SUBSTRUCTURE
     1 EZU         1 TEMP              0 ****  ****    0 ROOT
