@<TRIPOS>MOLECULE
EZU
   51    55     1     0     0
SMALL
abcg2


@<TRIPOS>ATOM
      1 N1          -0.8310   -22.9390   -24.5090 ns         1 EZU      -0.462400
      2 C2          -0.2040   -23.5120   -25.5820 cc         1 EZU       0.739800
      3 N3          -0.3580   -24.7640   -25.9220 nd         1 EZU      -0.706100
      4 C4          -1.2080   -25.4400   -25.1320 cd         1 EZU       0.181400
      5 C5          -1.8890   -24.9590   -24.0170 cc         1 EZU      -0.369600
      6 C6          -1.7090   -23.5950   -23.6380 c          1 EZU       0.635600
      7 N7          -1.5690   -26.7220   -25.2800 na         1 EZU       0.131800
      8 N8          -2.4560   -27.0990   -24.3350 nd         1 EZU      -0.518800
      9 C9          -2.6530   -26.0550   -23.5690 cc         1 EZU       0.324900
     10 O10         -2.2160   -22.9990   -22.7050 o          1 EZU      -0.535000
     11 C11         -1.2060   -27.6170   -26.3610 c5         1 EZU       0.092300
     12 N12          0.5900   -22.7270   -26.3250 nu         1 EZU      -0.916400
     13 C13          1.3890   -23.2670   -27.4020 c3         1 EZU       0.177500
     14 C14          0.5670   -23.9440   -28.4970 c          1 EZU       0.627100
     15 C15          2.2400   -22.1580   -28.0090 c3         1 EZU      -0.109100
     16 N16         -0.5860   -23.3810   -28.8610 nj         1 EZU      -0.420800
     17 O17          1.0010   -24.9380   -29.0640 o          1 EZU      -0.597100
     18 C18         -1.4750   -23.8000   -29.9290 cy         1 EZU       0.126000
     19 C19         -2.3260   -22.5490   -29.6570 cy         1 EZU      -0.173000
     20 C20         -1.3640   -22.1970   -28.5130 cy         1 EZU       0.126000
     21 C21         -2.6710   -21.5620   -30.7680 cy         1 EZU       0.158100
     22 O22         -4.0750   -21.7390   -30.5550 oq         1 EZU      -0.444000
     23 C23         -3.8370   -22.6290   -29.4590 cy         1 EZU       0.158100
     24 C24         -2.4140   -28.0050   -27.2480 c5         1 EZU      -0.087400
     25 C25         -2.6060   -29.5070   -27.0370 c5         1 EZU      -0.079900
     26 C26         -1.1860   -30.0070   -26.7880 c5         1 EZU      -0.079900
     27 C27         -0.6090   -28.9450   -25.8560 c5         1 EZU      -0.087400
     28 H1          -0.6600   -21.9620   -24.3060 hn         1 EZU       0.319500
     29 H2          -3.3260   -26.1100   -22.7270 h4         1 EZU       0.048100
     30 H3          -0.4710   -27.0680   -26.9490 h1         1 EZU       0.091700
     31 H4           0.7620   -21.7760   -26.0360 hn         1 EZU       0.502000
     32 H5           2.0500   -24.0460   -27.0120 h1         1 EZU       0.094700
     33 H6           2.9110   -21.7390   -27.2580 hc         1 EZU       0.053367
     34 H7           2.8510   -22.5580   -28.8150 hc         1 EZU       0.053367
     35 H8           1.6270   -21.3510   -28.4100 hc         1 EZU       0.053367
     36 H9          -1.9760   -24.7520   -29.7380 h1         1 EZU       0.059950
     37 H10         -1.0050   -23.8370   -30.9150 h1         1 EZU       0.059950
     38 H11         -0.8300   -21.2510   -28.6280 h1         1 EZU       0.059950
     39 H12         -1.8170   -22.2300   -27.5200 h1         1 EZU       0.059950
     40 H13         -2.3560   -21.8600   -31.7730 h1         1 EZU       0.058450
     41 H14         -2.3430   -20.5340   -30.5850 h1         1 EZU       0.058450
     42 H15         -4.1950   -22.2290   -28.5050 h1         1 EZU       0.058450
     43 H16         -4.2770   -23.6190   -29.6140 h1         1 EZU       0.058450
     44 H17         -2.1660   -27.8040   -28.2920 hc         1 EZU       0.056700
     45 H18         -3.3010   -27.4180   -27.0110 hc         1 EZU       0.056700
     46 H19         -3.0950   -29.9920   -27.8820 hc         1 EZU       0.047700
     47 H20         -3.2220   -29.6890   -26.1520 hc         1 EZU       0.047700
     48 H21         -1.1470   -31.0080   -26.3580 hc         1 EZU       0.047700
     49 H22         -0.6280   -30.0320   -27.7290 hc         1 EZU       0.047700
     50 H23         -0.9470   -29.1310   -24.8350 hc         1 EZU       0.056700
     51 H24          0.4810   -28.9220   -25.8400 hc         1 EZU       0.056700
@<TRIPOS>BOND
     1     1     2 1   
     2     1     6 1   
     3     1    28 1   
     4     2     3 2   
     5     2    12 1   
     6     3     4 1   
     7     4     5 2   
     8     4     7 1   
     9     5     6 1   
    10     5     9 1   
    11     6    10 2   
    12     7     8 1   
    13     7    11 1   
    14     8     9 2   
    15     9    29 1   
    16    11    24 1   
    17    11    27 1   
    18    11    30 1   
    19    12    13 1   
    20    12    31 1   
    21    13    14 1   
    22    13    15 1   
    23    13    32 1   
    24    14    16 1   
    25    14    17 2   
    26    15    33 1   
    27    15    34 1   
    28    15    35 1   
    29    16    18 1   
    30    16    20 1   
    31    18    19 1   
    32    18    36 1   
    33    18    37 1   
    34    19    20 1   
    35    19    21 1   
    36    19    23 1   
    37    20    38 1   
    38    20    39 1   
    39    21    22 1   
    40    21    40 1   
    41    21    41 1   
    42    22    23 1   
    43    23    42 1   
    44    23    43 1   
    45    24    25 1   
    46    24    44 1   
    47    24    45 1   
    48    25    26 1   
    49    25    46 1   
    50    25    47 1   
    51    26    27 1   
    52    26    48 1   
    53    26    49 1   
    54    27    50 1   
    55    27    51 1   
@<TRIPOS>SUBSTRUCTURE
     1 EZU         1 TEMP              0 ****  ****    0 ROOT
