@<TRIPOS>MOLECULE
EZV
   57    62     1     0     0
SMALL
bcc


@<TRIPOS>ATOM
      1 C1          -3.6820     1.1370    -0.0430 ca         1 EZV      -0.163000
      2 C2          -4.3270    -0.1290    -0.0590 cp         1 EZV       0.027000
      3 C3          -3.5680    -1.2860    -0.0560 ca         1 EZV      -0.154000
      4 C4          -2.1790    -1.1490    -0.0440 ca         1 EZV      -0.043200
      5 C5          -1.5380     0.1000    -0.0280 ca         1 EZV      -0.193900
      6 C6          -2.3140     1.2660    -0.0270 ca         1 EZV      -0.036000
      7 N7          -1.1880    -2.0760    -0.0320 na         1 EZV       0.000900
      8 N8           0.0190    -1.5290    -0.0140 nc         1 EZV      -0.532100
      9 C9          -0.1530    -0.2250    -0.0120 cd         1 EZV       0.333600
     10 C10          0.9820     0.6710     0.0050 cd         1 EZV       0.407500
     11 N11          0.9110     1.9760    -0.0320 nc         1 EZV      -0.574100
     12 C12          2.2130     2.4090     0.0070 ca         1 EZV       0.084400
     13 C13          3.0820     1.3090     0.0600 ca         1 EZV      -0.088200
     14 N14          2.2600     0.2140     0.0600 na         1 EZV      -0.238300
     15 C15          2.7220     3.7110     0.0430 ca         1 EZV      -0.089000
     16 C16          4.0920     3.8480     0.1340 ca         1 EZV      -0.132000
     17 C17          4.9530     2.7380     0.1650 ca         1 EZV      -0.166000
     18 C18          4.4760     1.4330     0.1240 ca         1 EZV       0.131600
     19 C19         -5.7990    -0.2010    -0.0820 cp         1 EZV      -0.094000
     20 N20          5.2750     0.2870     0.1830 nh         1 EZV      -0.645000
     21 C21          6.6290     0.4480     0.6760 c6         1 EZV       0.187300
     22 C22          7.2210    -0.9140     0.9910 c6         1 EZV       0.160800
     23 N23          7.2080    -1.7670    -0.1800 n3         1 EZV      -0.717600
     24 C24          5.8570    -1.9160    -0.6790 c6         1 EZV       0.160800
     25 C25          5.2570    -0.5630    -1.0030 c6         1 EZV       0.187300
     26 C26          7.8280    -3.0460     0.0790 c3         1 EZV       0.153100
     27 C27         -6.5860     0.7200     0.6130 ca         1 EZV      -0.070000
     28 C28         -7.9670     0.6500     0.6030 ca         1 EZV      -0.202500
     29 C29         -8.6300    -0.3520    -0.1180 ca         1 EZV       0.164600
     30 C30         -7.8470    -1.2790    -0.8170 ca         1 EZV      -0.202500
     31 C31         -6.4660    -1.2000    -0.7950 ca         1 EZV      -0.070000
     32 N32        -10.0020    -0.3900    -0.1810 nv         1 EZV      -0.828200
     33 H1          -4.2910     2.0310    -0.0690 ha         1 EZV       0.137000
     34 H3          -4.0290    -2.2650    -0.0410 ha         1 EZV       0.138000
     35 H6          -1.8490     2.2410    -0.0240 ha         1 EZV       0.162000
     36 HN7         -1.2800    -3.0790    -0.0400 hn         1 EZV       0.327700
     37 HN14         2.5310    -0.7520     0.1590 hn         1 EZV       0.323700
     38 H15          2.0640     4.5690     0.0130 ha         1 EZV       0.146000
     39 H16          4.5270     4.8380     0.1720 ha         1 EZV       0.130000
     40 H17          6.0190     2.9160     0.2190 ha         1 EZV       0.131000
     41 H21          7.2740     0.9640    -0.0510 h1         1 EZV       0.045200
     42 H21A         6.6140     1.0480     1.5870 h1         1 EZV       0.045200
     43 H22          8.2520    -0.7810     1.3260 h1         1 EZV       0.038450
     44 H22A         6.6600    -1.3620     1.8300 h1         1 EZV       0.038450
     45 H24          5.8750    -2.5220    -1.5880 h1         1 EZV       0.038450
     46 H24A         5.2070    -2.4370     0.0460 h1         1 EZV       0.038450
     47 H25          4.2360    -0.7000    -1.3610 h1         1 EZV       0.045200
     48 H25A         5.8220    -0.0970    -1.8240 h1         1 EZV       0.045200
     49 H26          7.3150    -3.6270     0.8610 h1         1 EZV       0.031367
     50 H26A         7.8350    -3.6470    -0.8320 h1         1 EZV       0.031367
     51 H26B         8.8630    -2.9040     0.3940 h1         1 EZV       0.031367
     52 H27         -6.1150     1.5000     1.1990 ha         1 EZV       0.131000
     53 H28         -8.5430     1.3770     1.1630 ha         1 EZV       0.130500
     54 H30         -8.3280    -2.0640    -1.3890 ha         1 EZV       0.130500
     55 H31         -5.8990    -1.9270    -1.3630 ha         1 EZV       0.131000
     56 HN32       -10.4960     0.0520     0.5780 hn         1 EZV       0.397300
     57 HN3A       -10.4130    -1.2720    -0.4390 hn         1 EZV       0.397300
@<TRIPOS>BOND
     1     1     2 ar  
     2     1     6 ar  
     3     1    33 1   
     4     2     3 ar  
     5     2    19 1   
     6     3     4 ar  
     7     3    34 1   
     8     4     5 ar  
     9     4     7 1   
    10     5     6 ar  
    11     5     9 1   
    12     6    35 1   
    13     7     8 1   
    14     7    36 1   
    15     8     9 2   
    16     9    10 1   
    17    10    11 2   
    18    10    14 1   
    19    11    12 1   
    20    12    13 ar  
    21    12    15 ar  
    22    13    14 1   
    23    13    18 ar  
    24    14    37 1   
    25    15    16 ar  
    26    15    38 1   
    27    16    17 ar  
    28    16    39 1   
    29    17    18 ar  
    30    17    40 1   
    31    18    20 1   
    32    19    27 ar  
    33    19    31 ar  
    34    20    21 1   
    35    20    25 1   
    36    21    22 1   
    37    21    41 1   
    38    21    42 1   
    39    22    23 1   
    40    22    43 1   
    41    22    44 1   
    42    23    24 1   
    43    23    26 1   
    44    24    25 1   
    45    24    45 1   
    46    24    46 1   
    47    25    47 1   
    48    25    48 1   
    49    26    49 1   
    50    26    50 1   
    51    26    51 1   
    52    27    28 ar  
    53    27    52 1   
    54    28    29 ar  
    55    28    53 1   
    56    29    30 ar  
    57    29    32 1   
    58    30    31 ar  
    59    30    54 1   
    60    31    55 1   
    61    32    56 1   
    62    32    57 1   
@<TRIPOS>SUBSTRUCTURE
     1 EZV         1 TEMP              0 ****  ****    0 ROOT
