@<TRIPOS>MOLECULE
EZV
   57    62     1     0     0
SMALL
No Charge or Current Charge


@<TRIPOS>ATOM
      1 C1          -3.6770     1.1300    -0.0460 ca         1 EZV      -0.145000
      2 C2          -4.3530    -0.1280    -0.0380 cp         1 EZV       0.027000
      3 C3          -3.5640    -1.3120    -0.0140 ca         1 EZV      -0.136000
      4 C4          -2.1690    -1.1960     0.0010 ca         1 EZV      -0.043200
      5 C5          -1.5460     0.0100    -0.0070 ca         1 EZV      -0.193900
      6 C6          -2.2680     1.2130    -0.0320 ca         1 EZV      -0.018000
      7 N7          -1.2090    -2.1870     0.0290 na         1 EZV      -0.049400
      8 N8           0.0780    -1.6210     0.0370 nc         1 EZV      -0.532100
      9 C9          -0.1210    -0.2830     0.0150 cd         1 EZV       0.333600
     10 C10          0.9880     0.6640     0.0140 cd         1 EZV       0.407500
     11 N11          0.8710     2.0130    -0.0040 nc         1 EZV      -0.574100
     12 C12          2.1930     2.4250     0.0120 ca         1 EZV       0.084400
     13 C13          3.0560     1.3650     0.0310 ca         1 EZV      -0.088200
     14 N14          2.3150     0.2120     0.0400 na         1 EZV      -0.288600
     15 C15          2.6760     3.7410     0.0170 ca         1 EZV      -0.071000
     16 C16          4.0710     3.9470     0.0470 ca         1 EZV      -0.114000
     17 C17          4.9540     2.8430     0.0680 ca         1 EZV      -0.148000
     18 C18          4.4550     1.5210     0.0580 ca         1 EZV       0.270000
     19 C19         -5.8490    -0.2000    -0.0530 cp         1 EZV      -0.094000
     20 N20          5.3130     0.3970     0.0680 nh         1 EZV      -0.783400
     21 C21          6.5880     0.4250     0.8530 c6         1 EZV       0.187300
     22 C22          7.1580    -1.0080     1.1170 c6         1 EZV       0.160800
     23 N23          7.3170    -1.8070    -0.1370 n3         1 EZV      -0.717600
     24 C24          6.0150    -1.8630    -0.8700 c6         1 EZV       0.160800
     25 C25          5.4230    -0.4450    -1.1640 c6         1 EZV       0.187300
     26 C26          7.8920    -3.1460     0.1090 c3         1 EZV       0.153100
     27 C27         -6.6380     0.7700     0.6160 ca         1 EZV      -0.052000
     28 C28         -8.0420     0.6990     0.6010 ca         1 EZV      -0.184500
     29 C29         -8.6880    -0.3390    -0.0830 ca         1 EZV       0.303000
     30 C30         -7.9300    -1.3080    -0.7530 ca         1 EZV      -0.184500
     31 C31         -6.5260    -1.2420    -0.7390 ca         1 EZV      -0.052000
     32 N32        -10.0530    -0.4050    -0.0970 nv         1 EZV      -1.077000
     33 H1          -4.2520     2.0510    -0.0790 ha         1 EZV       0.119000
     34 H3          -4.0300    -2.2940     0.0070 ha         1 EZV       0.120000
     35 H6          -1.7720     2.1800    -0.0420 ha         1 EZV       0.144000
     36 HN7         -1.3680    -3.1940     0.0420 hn         1 EZV       0.378000
     37 HN14         2.6320    -0.7470     0.0880 hn         1 EZV       0.374000
     38 H15          1.9880     4.5830     0.0020 ha         1 EZV       0.128000
     39 H16          4.4680     4.9600     0.0510 ha         1 EZV       0.112000
     40 H17          6.0260     3.0200     0.0810 ha         1 EZV       0.113000
     41 H21          7.3470     1.0080     0.3110 h1         1 EZV       0.045200
     42 H21A         6.4250     0.9190     1.8220 h1         1 EZV       0.045200
     43 H22          8.1260    -0.9090     1.6300 h1         1 EZV       0.038450
     44 H22A         6.4810    -1.5280     1.8110 h1         1 EZV       0.038450
     45 H24          6.1400    -2.3930    -1.8260 h1         1 EZV       0.038450
     46 H24A         5.2780    -2.4310    -0.2840 h1         1 EZV       0.038450
     47 H25          4.4380    -0.5690    -1.6370 h1         1 EZV       0.045200
     48 H25A         6.0700     0.0600    -1.8970 h1         1 EZV       0.045200
     49 H26          7.2310    -3.7470     0.7480 h1         1 EZV       0.031367
     50 H26A         8.0380    -3.6840    -0.8370 h1         1 EZV       0.031367
     51 H26B         8.8680    -3.0640     0.6050 h1         1 EZV       0.031367
     52 H27         -6.1580     1.5770     1.1660 ha         1 EZV       0.113000
     53 H28         -8.6230     1.4530     1.1240 ha         1 EZV       0.112500
     54 H30         -8.4240    -2.1130    -1.2890 ha         1 EZV       0.112500
     55 H31         -5.9590    -1.9980    -1.2770 ha         1 EZV       0.113000
     56 HN32       -10.5940     0.2060     0.5110 hn         1 EZV       0.452500
     57 HN3A       -10.5160    -1.2360    -0.4620 hn         1 EZV       0.452500
@<TRIPOS>BOND
     1     1     2 ar  
     2     1     6 ar  
     3     1    33 1   
     4     2     3 ar  
     5     2    19 1   
     6     3     4 ar  
     7     3    34 1   
     8     4     5 ar  
     9     4     7 1   
    10     5     6 ar  
    11     5     9 1   
    12     6    35 1   
    13     7     8 1   
    14     7    36 1   
    15     8     9 2   
    16     9    10 1   
    17    10    11 2   
    18    10    14 1   
    19    11    12 1   
    20    12    13 ar  
    21    12    15 ar  
    22    13    14 1   
    23    13    18 ar  
    24    14    37 1   
    25    15    16 ar  
    26    15    38 1   
    27    16    17 ar  
    28    16    39 1   
    29    17    18 ar  
    30    17    40 1   
    31    18    20 1   
    32    19    27 ar  
    33    19    31 ar  
    34    20    21 1   
    35    20    25 1   
    36    21    22 1   
    37    21    41 1   
    38    21    42 1   
    39    22    23 1   
    40    22    43 1   
    41    22    44 1   
    42    23    24 1   
    43    23    26 1   
    44    24    25 1   
    45    24    45 1   
    46    24    46 1   
    47    25    47 1   
    48    25    48 1   
    49    26    49 1   
    50    26    50 1   
    51    26    51 1   
    52    27    28 ar  
    53    27    52 1   
    54    28    29 ar  
    55    28    53 1   
    56    29    30 ar  
    57    29    32 1   
    58    30    31 ar  
    59    30    54 1   
    60    31    55 1   
    61    32    56 1   
    62    32    57 1   
@<TRIPOS>SUBSTRUCTURE
     1 EZV         1 TEMP              0 ****  ****    0 ROOT
