@<TRIPOS>MOLECULE
EZW
   50    55     1     0     0
SMALL
No Charge or Current Charge


@<TRIPOS>ATOM
      1 CAA         -3.0970     3.4630     0.3910 ca         1 EZW      -0.093000
      2 CAB         -4.4100     3.7850     0.7760 ca         1 EZW      -0.103000
      3 CAC         -5.4070     2.7940     0.7750 ca         1 EZW      -0.101000
      4 CAD         -5.0920     1.4790     0.3880 ca         1 EZW      -0.097000
      5 CAE         -3.7790     1.1520     0.0010 ca         1 EZW      -0.028000
      6 CAF         -2.7790     2.1470     0.0040 ca         1 EZW      -0.033000
      7 CAG         -3.4610    -0.1640    -0.3890 ca         1 EZW      -0.099000
      8 CAH         -2.1450    -0.5040    -0.7820 ca         1 EZW      -0.010200
      9 CAI         -1.1560     0.5000    -0.7540 ca         1 EZW       0.219300
     10 CAJ         -1.4690     1.8150    -0.3770 ca         1 EZW      -0.086000
     11 CAL         -0.6830    -2.4890    -0.7240 cc         1 EZW      -0.142000
     12 CAM          0.5280    -1.9150    -0.1890 cc         1 EZW       0.141100
     13 CAN          0.9250    -0.5880    -0.3640 cd         1 EZW       0.314800
     14 CAP         -2.7870    -2.7160    -1.6360 cc         1 EZW      -0.166000
     15 CAQ         -2.2350    -3.9600    -1.4490 cd         1 EZW      -0.179000
     16 CAR         -0.9520    -3.8250    -0.8690 cd         1 EZW      -0.132000
     17 CAS          1.9920     0.1490     0.3690 ca         1 EZW      -0.134500
     18 CAU          1.2540    -3.3980     1.5510 c          1 EZW       0.597100
     19 CAV          2.4370    -4.2750     1.9310 c3         1 EZW      -0.155100
     20 CAX          2.1840    -0.1320     1.7390 ca         1 EZW      -0.087000
     21 CAY          3.1220     0.5750     2.5010 ca         1 EZW      -0.111000
     22 CAZ          3.8860     1.5860     1.9080 ca         1 EZW      -0.071000
     23 CBA          3.7390     1.8980     0.5470 ca         1 EZW       0.261000
     24 CBB          2.7920     1.1700    -0.2330 ca         1 EZW      -0.055000
     25 CBD          4.4110     3.1630    -1.2910 ca         1 EZW       0.352900
     26 CBE          3.5370     2.4780    -2.1420 ca         1 EZW      -0.171000
     27 CBF          2.7220     1.4650    -1.6170 ca         1 EZW      -0.047000
     28 NAK         -1.8250    -1.8170    -1.1650 na         1 EZW       0.141200
     29 NBC          4.5190     2.8770     0.0230 nb         1 EZW      -0.665000
     30 OAO          0.1280     0.2210    -1.1290 os         1 EZW      -0.497600
     31 OAT          1.4730    -2.7400     0.3700 os         1 EZW      -0.349200
     32 OAW          0.2430    -3.2890     2.2290 o          1 EZW      -0.454000
     33 HAA         -2.3310     4.2350     0.3960 ha         1 EZW       0.118000
     34 HAB         -4.6550     4.8020     1.0750 ha         1 EZW       0.116000
     35 HAC         -6.4220     3.0440     1.0730 ha         1 EZW       0.116000
     36 HAD         -5.8700     0.7190     0.3900 ha         1 EZW       0.117000
     37 HAG         -4.2430    -0.9190    -0.3700 ha         1 EZW       0.129000
     38 HAJ         -0.6870     2.5690    -0.3780 ha         1 EZW       0.137000
     39 HAP         -3.7500    -2.4140    -2.0270 h4         1 EZW       0.151000
     40 HAQ         -2.7170    -4.9010    -1.6970 ha         1 EZW       0.136000
     41 HAR         -0.2850    -4.6430    -0.6130 ha         1 EZW       0.138000
     42 HAW          3.3420    -3.6580     1.9510 hc         1 EZW       0.074033
     43 HAV          2.2830    -4.8050     2.8770 hc         1 EZW       0.074033
     44 HAX          2.6450    -4.9650     1.1050 hc         1 EZW       0.074033
     45 HAY          1.5640    -0.8650     2.2450 ha         1 EZW       0.126000
     46 HAZ          3.2430     0.3530     3.5590 ha         1 EZW       0.120000
     47 HA0          4.6070     2.1350     2.5080 ha         1 EZW       0.132000
     48 HBD          5.0550     3.9540    -1.6730 h4         1 EZW       0.018100
     49 HBE          3.5010     2.7280    -3.1990 ha         1 EZW       0.125000
     50 HBF          2.0750     0.9190    -2.2960 ha         1 EZW       0.135000
@<TRIPOS>BOND
     1     1     2 ar  
     2     1     6 ar  
     3     1    33 1   
     4     2     3 ar  
     5     2    34 1   
     6     3     4 ar  
     7     3    35 1   
     8     4     5 ar  
     9     4    36 1   
    10     5     6 ar  
    11     5     7 ar  
    12     6    10 ar  
    13     7     8 ar  
    14     7    37 1   
    15     8     9 ar  
    16     8    28 1   
    17     9    10 ar  
    18     9    30 1   
    19    10    38 1   
    20    11    12 1   
    21    11    16 2   
    22    11    28 1   
    23    12    13 2   
    24    12    31 1   
    25    13    17 1   
    26    13    30 1   
    27    14    15 2   
    28    14    28 1   
    29    14    39 1   
    30    15    16 1   
    31    15    40 1   
    32    16    41 1   
    33    17    20 ar  
    34    17    24 ar  
    35    18    19 1   
    36    18    31 1   
    37    18    32 2   
    38    19    42 1   
    39    19    43 1   
    40    19    44 1   
    41    20    21 ar  
    42    20    45 1   
    43    21    22 ar  
    44    21    46 1   
    45    22    23 ar  
    46    22    47 1   
    47    23    24 ar  
    48    23    29 ar  
    49    24    27 ar  
    50    25    26 ar  
    51    25    29 ar  
    52    25    48 1   
    53    26    27 ar  
    54    26    49 1   
    55    27    50 1   
@<TRIPOS>SUBSTRUCTURE
     1 EZW         1 TEMP              0 ****  ****    0 ROOT
