@<TRIPOS>MOLECULE
EZW
   50    55     1     0     0
SMALL
abcg2


@<TRIPOS>ATOM
      1 CAA         -3.2950     3.3610     0.6630 ca         1 EZW      -0.093000
      2 CAB         -4.5680     3.5630     1.1230 ca         1 EZW      -0.103000
      3 CAC         -5.4890     2.4950     1.1670 ca         1 EZW      -0.101000
      4 CAD         -5.1200     1.2460     0.7490 ca         1 EZW      -0.097000
      5 CAE         -3.8130     1.0070     0.2650 ca         1 EZW      -0.028000
      6 CAF         -2.8870     2.0800     0.2250 ca         1 EZW      -0.033000
      7 CAG         -3.4080    -0.2750    -0.1690 ca         1 EZW      -0.099000
      8 CAH         -2.1430    -0.4850    -0.6480 ca         1 EZW      -0.010200
      9 CAI         -1.2230     0.5930    -0.6780 ca         1 EZW       0.219300
     10 CAJ         -1.5770     1.8350    -0.2450 ca         1 EZW      -0.086000
     11 CAL         -0.5310    -2.3560    -0.9480 cc         1 EZW      -0.142000
     12 CAM          0.5830    -1.7100    -0.2910 cc         1 EZW       0.141100
     13 CAN          0.8270    -0.3990    -0.3460 cd         1 EZW       0.314800
     14 CAP         -2.5880    -2.6180    -1.7790 cc         1 EZW      -0.166000
     15 CAQ         -1.9140    -3.7900    -1.9880 cd         1 EZW      -0.179000
     16 CAR         -0.6140    -3.6300    -1.4580 cd         1 EZW      -0.132000
     17 CAS          1.8670     0.3300     0.3930 ca         1 EZW      -0.134500
     18 CAU          1.0800    -3.0960     1.5200 c          1 EZW       0.597100
     19 CAV          2.1100    -4.0540     2.0220 c3         1 EZW      -0.155100
     20 CAX          1.8400     0.3600     1.7650 ca         1 EZW      -0.087000
     21 CAY          2.7930     1.0980     2.4940 ca         1 EZW      -0.111000
     22 CAZ          3.7580     1.8150     1.8450 ca         1 EZW      -0.071000
     23 CBA          3.8200     1.8100     0.4320 ca         1 EZW       0.261000
     24 CBB          2.8730     1.0560    -0.3060 ca         1 EZW      -0.055000
     25 CBD          4.8800     2.5110    -1.4670 ca         1 EZW       0.352900
     26 CBE          4.0050     1.7780    -2.2930 ca         1 EZW      -0.171000
     27 CBF          3.0050     1.0510    -1.7130 ca         1 EZW      -0.047000
     28 NAK         -1.7500    -1.7400    -1.1450 na         1 EZW       0.141200
     29 NBC          4.8020     2.5280    -0.1640 nb         1 EZW      -0.665000
     30 OAO          0.0300     0.3650    -1.1790 os         1 EZW      -0.497600
     31 OAT          1.4740    -2.5370     0.3510 os         1 EZW      -0.349200
     32 OAW          0.0390    -2.8170     2.0430 o          1 EZW      -0.454000
     33 HAA         -2.5870     4.1790     0.6290 ha         1 EZW       0.118000
     34 HAB         -4.8750     4.5460     1.4530 ha         1 EZW       0.116000
     35 HAC         -6.4910     2.6700     1.5340 ha         1 EZW       0.116000
     36 HAD         -5.8280     0.4260     0.7810 ha         1 EZW       0.117000
     37 HAG         -4.1140    -1.0930    -0.1130 ha         1 EZW       0.129000
     38 HAJ         -0.8530     2.6390    -0.2780 ha         1 EZW       0.137000
     39 HAP         -3.5900    -2.3290    -2.0500 h4         1 EZW       0.151000
     40 HAQ         -2.3070    -4.6610    -2.4860 ha         1 EZW       0.136000
     41 HAR          0.1820    -4.3580    -1.4640 ha         1 EZW       0.138000
     42 HAW          3.0750    -3.5580     2.1220 hc         1 EZW       0.074033
     43 HAV          1.8120    -4.4610     2.9830 hc         1 EZW       0.074033
     44 HAX          2.2390    -4.8720     1.3120 hc         1 EZW       0.074033
     45 HAY          1.0630    -0.1720     2.3000 ha         1 EZW       0.126000
     46 HAZ          2.7440     1.1030     3.5750 ha         1 EZW       0.120000
     47 HA0          4.4900     2.3940     2.3910 ha         1 EZW       0.132000
     48 HBD          5.6750     3.0960    -1.9170 h4         1 EZW       0.018100
     49 HBE          4.1380     1.7950    -3.3660 ha         1 EZW       0.125000
     50 HBF          2.3300     0.4730    -2.3290 ha         1 EZW       0.135000
@<TRIPOS>BOND
     1     1     2 ar  
     2     1     6 ar  
     3     1    33 1   
     4     2     3 ar  
     5     2    34 1   
     6     3     4 ar  
     7     3    35 1   
     8     4     5 ar  
     9     4    36 1   
    10     5     6 ar  
    11     5     7 ar  
    12     6    10 ar  
    13     7     8 ar  
    14     7    37 1   
    15     8     9 ar  
    16     8    28 1   
    17     9    10 ar  
    18     9    30 1   
    19    10    38 1   
    20    11    12 1   
    21    11    16 2   
    22    11    28 1   
    23    12    13 2   
    24    12    31 1   
    25    13    17 1   
    26    13    30 1   
    27    14    15 2   
    28    14    28 1   
    29    14    39 1   
    30    15    16 1   
    31    15    40 1   
    32    16    41 1   
    33    17    20 ar  
    34    17    24 ar  
    35    18    19 1   
    36    18    31 1   
    37    18    32 2   
    38    19    42 1   
    39    19    43 1   
    40    19    44 1   
    41    20    21 ar  
    42    20    45 1   
    43    21    22 ar  
    44    21    46 1   
    45    22    23 ar  
    46    22    47 1   
    47    23    24 ar  
    48    23    29 ar  
    49    24    27 ar  
    50    25    26 ar  
    51    25    29 ar  
    52    25    48 1   
    53    26    27 ar  
    54    26    49 1   
    55    27    50 1   
@<TRIPOS>SUBSTRUCTURE
     1 EZW         1 TEMP              0 ****  ****    0 ROOT
