@<TRIPOS>MOLECULE
EZX
   52    56     1     0     0
SMALL
No Charge or Current Charge


@<TRIPOS>ATOM
      1 N1         -27.4450   -13.8220   141.1510 n3         1 EZX      -0.730600
      2 N3         -28.7720   -13.1490   147.4110 na         1 EZX      -0.227700
      3 C4         -28.4870   -14.3800   140.2530 c3         1 EZX       0.168800
      4 C5         -26.5330   -14.8840   141.6860 c6         1 EZX       0.130800
      5 C6         -25.4100   -14.3090   142.6070 c6         1 EZX       0.189800
      6 C7         -26.3880   -14.1820   144.9470 ca         1 EZX       0.339000
      7 C8         -25.9290   -15.4380   145.4100 ca         1 EZX      -0.208000
      8 C10        -27.4150   -15.2850   147.3750 ca         1 EZX      -0.168000
      9 C13        -27.9010   -12.2970   145.4770 cc         1 EZX      -0.135400
     10 C15        -26.8670   -12.3980   143.2000 c6         1 EZX       0.204500
     11 C17        -27.3290   -13.5460   145.7460 ca         1 EZX      -0.162800
     12 C20        -26.4860    -9.2380   136.2060 ca         1 EZX      -0.168500
     13 C21        -27.2260    -8.2600   135.5310 ca         1 EZX       0.197000
     14 C22        -28.6250    -8.2600   135.6020 ca         1 EZX      -0.168500
     15 C1         -29.3040   -11.2910   137.8500 c          1 EZX       0.582700
     16 C2         -28.5050   -12.3380   138.6490 c3         1 EZX      -0.170400
     17 C3         -29.3410   -13.3310   139.4990 c3         1 EZX      -0.065400
     18 N2         -25.9920   -13.5270   143.7400 nh         1 EZX      -0.758400
     19 C9         -26.4410   -15.9840   146.6200 ca         1 EZX      -0.055000
     20 C11        -27.8430   -14.0410   146.8950 ca         1 EZX      -0.008200
     21 C12        -28.8010   -12.0450   146.5070 cd         1 EZX      -0.160100
     22 C14        -27.4850   -11.4580   144.3060 c6         1 EZX       0.009800
     23 C16        -27.9910   -12.9910   142.2790 c6         1 EZX       0.130800
     24 C18        -28.5590   -10.2410   137.0450 ca         1 EZX      -0.194600
     25 C19        -27.1440   -10.2260   136.9600 ca         1 EZX      -0.038500
     26 C23        -29.2900    -9.2440   136.3540 ca         1 EZX      -0.038500
     27 H2         -29.3130   -13.2580   148.2640 hn         1 EZX       0.348000
     28 H3         -29.1630   -15.0280   140.8270 h1         1 EZX       0.032700
     29 H4         -28.0060   -15.0150   139.4960 h1         1 EZX       0.032700
     30 H5         -27.1110   -15.6220   142.2610 h1         1 EZX       0.039700
     31 H6         -26.0580   -15.4260   140.8560 h1         1 EZX       0.039700
     32 H7         -24.7670   -15.1260   142.9600 h1         1 EZX       0.061700
     33 H8         -24.7620   -13.6570   142.0030 h1         1 EZX       0.061700
     34 H9         -25.1870   -15.9990   144.8540 ha         1 EZX       0.110000
     35 H10        -27.8140   -15.7000   148.2980 ha         1 EZX       0.115000
     36 H11        -26.2500   -11.7510   142.5580 h1         1 EZX       0.066700
     37 H12        -25.4010    -9.2320   136.1450 ha         1 EZX       0.136000
     38 H13        -29.1930    -7.4980   135.0760 ha         1 EZX       0.136000
     39 H14        -27.8500   -12.8650   137.9460 hc         1 EZX       0.070700
     40 H15        -27.7740   -11.7980   139.2620 hc         1 EZX       0.070700
     41 H16        -29.9600   -12.7760   140.2140 hc         1 EZX       0.053200
     42 H17        -30.0360   -13.8670   138.8420 hc         1 EZX       0.053200
     43 H18        -26.0850   -16.9510   146.9670 ha         1 EZX       0.105000
     44 H19        -29.4330   -11.1760   146.6740 h4         1 EZX       0.212000
     45 H20        -26.7240   -10.7340   144.6250 hc         1 EZX       0.054200
     46 H21        -28.3220   -10.8740   143.9020 hc         1 EZX       0.054200
     47 H22        -28.5790   -12.1520   141.8820 h1         1 EZX       0.047200
     48 H23        -28.6710   -13.5950   142.8980 h1         1 EZX       0.047200
     49 H24        -26.5380   -10.9710   137.4700 ha         1 EZX       0.130000
     50 H25        -30.3780    -9.2260   136.3980 ha         1 EZX       0.130000
     51 F1         -26.5900    -7.3130   134.8070 f          1 EZX      -0.174000
     52 O1         -30.5300   -11.3070   137.8610 o          1 EZX      -0.529100
@<TRIPOS>BOND
     1     1     3 1   
     2     1     4 1   
     3     1    23 1   
     4     2    20 1   
     5     2    21 1   
     6     2    27 1   
     7     3    17 1   
     8     3    28 1   
     9     3    29 1   
    10     4     5 1   
    11     4    30 1   
    12     4    31 1   
    13     5    18 1   
    14     5    32 1   
    15     5    33 1   
    16     6     7 ar  
    17     6    11 ar  
    18     6    18 1   
    19     7    19 ar  
    20     7    34 1   
    21     8    19 ar  
    22     8    20 ar  
    23     8    35 1   
    24     9    11 1   
    25     9    21 2   
    26     9    22 1   
    27    10    18 1   
    28    10    22 1   
    29    10    23 1   
    30    10    36 1   
    31    11    20 ar  
    32    12    13 ar  
    33    12    25 ar  
    34    12    37 1   
    35    13    14 ar  
    36    13    51 1   
    37    14    26 ar  
    38    14    38 1   
    39    15    16 1   
    40    15    24 1   
    41    15    52 2   
    42    16    17 1   
    43    16    39 1   
    44    16    40 1   
    45    17    41 1   
    46    17    42 1   
    47    19    43 1   
    48    21    44 1   
    49    22    45 1   
    50    22    46 1   
    51    23    47 1   
    52    23    48 1   
    53    24    25 ar  
    54    24    26 ar  
    55    25    49 1   
    56    26    50 1   
@<TRIPOS>SUBSTRUCTURE
     1 EZX         1 TEMP              0 ****  ****    0 ROOT
