@<TRIPOS>MOLECULE
EZX
   52    56     1     0     0
SMALL
abcg2


@<TRIPOS>ATOM
      1 N1         -27.4070   -13.7640   141.2180 n3         1 EZX      -0.730600
      2 N3         -28.7890   -13.1300   147.2440 na         1 EZX      -0.227700
      3 C4         -28.4150   -14.3170   140.3330 c3         1 EZX       0.168800
      4 C5         -26.5070   -14.8000   141.6920 c6         1 EZX       0.130800
      5 C6         -25.4190   -14.2050   142.5740 c6         1 EZX       0.189800
      6 C7         -26.4420   -14.1610   144.7880 ca         1 EZX       0.339000
      7 C8         -26.0600   -15.4330   145.2050 ca         1 EZX      -0.208000
      8 C10        -27.5330   -15.3420   147.1790 ca         1 EZX      -0.168000
      9 C13        -27.9160   -12.2170   145.4000 cc         1 EZX      -0.135400
     10 C15        -26.8630   -12.3930   143.1630 c6         1 EZX       0.204500
     11 C17        -27.3720   -13.5060   145.6000 ca         1 EZX      -0.162800
     12 C20        -26.5120    -9.3050   136.3030 ca         1 EZX      -0.168500
     13 C21        -27.2970    -8.4650   135.5360 ca         1 EZX       0.197000
     14 C22        -28.6790    -8.4970   135.5830 ca         1 EZX      -0.168500
     15 C1         -29.2430   -11.2410   138.1030 c          1 EZX       0.582700
     16 C2         -28.4260   -12.2520   138.8660 c3         1 EZX      -0.170400
     17 C3         -29.2630   -13.2710   139.6230 c3         1 EZX      -0.065400
     18 N2         -25.9880   -13.4580   143.6810 nh         1 EZX      -0.758400
     19 C9         -26.6030   -15.9860   146.3830 ca         1 EZX      -0.055000
     20 C11        -27.9200   -14.0630   146.7560 ca         1 EZX      -0.008200
     21 C12        -28.7870   -12.0140   146.4300 cd         1 EZX      -0.160100
     22 C14        -27.3910   -11.4360   144.2440 c6         1 EZX       0.009800
     23 C16        -27.9770   -13.0080   142.3200 c6         1 EZX       0.130800
     24 C18        -28.5320   -10.2760   137.2160 ca         1 EZX      -0.194600
     25 C19        -27.1400   -10.2120   137.1420 ca         1 EZX      -0.038500
     26 C23        -29.2880    -9.4050   136.4290 ca         1 EZX      -0.038500
     27 H2         -29.3450   -13.2260   148.0770 hn         1 EZX       0.348000
     28 H3         -29.0870   -15.0100   140.8680 h1         1 EZX       0.032700
     29 H4         -27.8940   -14.9150   139.5790 h1         1 EZX       0.032700
     30 H5         -27.0470   -15.5820   142.2560 h1         1 EZX       0.039700
     31 H6         -26.0480   -15.2910   140.8310 h1         1 EZX       0.039700
     32 H7         -24.7590   -14.9880   142.9430 h1         1 EZX       0.061700
     33 H8         -24.8010   -13.5220   141.9860 h1         1 EZX       0.061700
     34 H9         -25.3530   -16.0260   144.6400 ha         1 EZX       0.110000
     35 H10        -27.9330   -15.8080   148.0700 ha         1 EZX       0.115000
     36 H11        -26.2430   -11.8020   142.4830 h1         1 EZX       0.066700
     37 H12        -25.4330    -9.2530   136.2480 ha         1 EZX       0.136000
     38 H13        -29.2650    -7.8260   134.9690 ha         1 EZX       0.136000
     39 H14        -27.7490   -12.7600   138.1710 hc         1 EZX       0.070700
     40 H15        -27.7680   -11.7110   139.5550 hc         1 EZX       0.070700
     41 H16        -29.9260   -12.7650   140.3280 hc         1 EZX       0.053200
     42 H17        -29.9210   -13.8000   138.9300 hc         1 EZX       0.053200
     43 H18        -26.2760   -16.9780   146.6680 ha         1 EZX       0.105000
     44 H19        -29.4140   -11.1690   146.6680 h4         1 EZX       0.212000
     45 H20        -26.5670   -10.7930   144.5690 hc         1 EZX       0.054200
     46 H21        -28.1370   -10.7770   143.7950 hc         1 EZX       0.054200
     47 H22        -28.5920   -12.1980   141.9210 h1         1 EZX       0.047200
     48 H23        -28.6320   -13.6310   142.9530 h1         1 EZX       0.047200
     49 H24        -26.5220   -10.8680   137.7400 ha         1 EZX       0.130000
     50 H25        -30.3670    -9.4390   136.4760 ha         1 EZX       0.130000
     51 F1         -26.7040    -7.5900   134.7150 f          1 EZX      -0.174000
     52 O1         -30.4520   -11.1980   138.1990 o          1 EZX      -0.529100
@<TRIPOS>BOND
     1     1     3 1   
     2     1     4 1   
     3     1    23 1   
     4     2    20 1   
     5     2    21 1   
     6     2    27 1   
     7     3    17 1   
     8     3    28 1   
     9     3    29 1   
    10     4     5 1   
    11     4    30 1   
    12     4    31 1   
    13     5    18 1   
    14     5    32 1   
    15     5    33 1   
    16     6     7 ar  
    17     6    11 ar  
    18     6    18 1   
    19     7    19 ar  
    20     7    34 1   
    21     8    19 ar  
    22     8    20 ar  
    23     8    35 1   
    24     9    11 1   
    25     9    21 2   
    26     9    22 1   
    27    10    18 1   
    28    10    22 1   
    29    10    23 1   
    30    10    36 1   
    31    11    20 ar  
    32    12    13 ar  
    33    12    25 ar  
    34    12    37 1   
    35    13    14 ar  
    36    13    51 1   
    37    14    26 ar  
    38    14    38 1   
    39    15    16 1   
    40    15    24 1   
    41    15    52 2   
    42    16    17 1   
    43    16    39 1   
    44    16    40 1   
    45    17    41 1   
    46    17    42 1   
    47    19    43 1   
    48    21    44 1   
    49    22    45 1   
    50    22    46 1   
    51    23    47 1   
    52    23    48 1   
    53    24    25 ar  
    54    24    26 ar  
    55    25    49 1   
    56    26    50 1   
@<TRIPOS>SUBSTRUCTURE
     1 EZX         1 TEMP              0 ****  ****    0 ROOT
