@<TRIPOS>MOLECULE
EZY
   24    24     1     0     0
SMALL
bcc


@<TRIPOS>ATOM
      1 N            1.2570     0.6190     0.1520 n7         1 EZY      -0.792200
      2 CA           2.5700     0.5470     0.7580 c3         1 EZY       0.014800
      3 C            3.6970     0.3900    -0.2780 c          1 EZY       0.931600
      4 O            3.3770    -0.0250    -1.4090 o          1 EZY      -0.836300
      5 C01          0.1930     0.4410     1.1160 c3         1 EZY       0.201100
      6 C02         -1.9590    -0.4450     0.0040 ca         1 EZY      -0.166200
      7 C03         -3.2140    -0.2400    -0.5570 ca         1 EZY      -0.084000
      8 C04         -3.6780     1.0520    -0.7170 ca         1 EZY      -0.151000
      9 C05         -2.8980     2.1180    -0.2880 ca         1 EZY      -0.102000
     10 C06         -1.6620     1.8860     0.2920 ca         1 EZY      -0.119000
     11 C07         -1.1540     0.5990     0.4580 ca         1 EZY       0.012700
     12 O01         -0.3580    -2.0730    -0.1750 o          1 EZY      -0.206000
     13 O02         -2.3260    -2.6620     0.4080 o          1 EZY      -0.206000
     14 H            1.1980    -0.0940    -0.5640 hn         1 EZY       0.391800
     15 HA2          2.7430     1.4470     1.3550 h1         1 EZY       0.010700
     16 HA3          2.6620    -0.2980     1.4640 h1         1 EZY       0.010700
     17 H08          0.2560    -0.5030     1.6760 h1         1 EZY       0.027200
     18 H05          0.2790     1.2310     1.8670 h1         1 EZY       0.027200
     19 H14         -3.8110    -1.0780    -0.8890 ha         1 EZY       0.152000
     20 H10         -4.6440     1.2240    -1.1710 ha         1 EZY       0.131000
     21 H11         -3.2560     3.1320    -0.4020 ha         1 EZY       0.130000
     22 H12         -1.0720     2.7220     0.6450 ha         1 EZY       0.152000
     23 OXT          4.8470     0.6560     0.1240 o          1 EZY      -0.836300
     24 N01         -1.5120    -1.8270     0.0930 no         1 EZY       0.305200
@<TRIPOS>BOND
     1     1     2 1   
     2     1     5 1   
     3     1    14 1   
     4     2     3 1   
     5     2    15 1   
     6     2    16 1   
     7     3     4 1   
     8     3    23 1   
     9     5    11 1   
    10     5    17 1   
    11     5    18 1   
    12     6     7 ar  
    13     6    11 ar  
    14     6    24 1   
    15     7     8 ar  
    16     7    19 1   
    17     8     9 ar  
    18     8    20 1   
    19     9    10 ar  
    20     9    21 1   
    21    10    11 ar  
    22    10    22 1   
    23    12    24 1   
    24    13    24 1   
@<TRIPOS>SUBSTRUCTURE
     1 EZY         1 TEMP              0 ****  ****    0 ROOT
