@<TRIPOS>MOLECULE
EZY
   24    24     1     0     0
SMALL
No Charge or Current Charge


@<TRIPOS>ATOM
      1 N            1.2610     0.5320     0.1770 n7         1 EZY      -0.847400
      2 CA           2.6350     0.4180     0.7660 c3         1 EZY       0.014800
      3 C            3.8090     0.2740    -0.2750 c          1 EZY       0.721000
      4 O            3.8020    -0.6940    -1.0270 o          1 EZY      -0.731000
      5 C01          0.1570     0.5600     1.1550 c3         1 EZY       0.201100
      6 C02         -1.9300    -0.4150    -0.0410 ca         1 EZY      -0.166200
      7 C03         -3.2070    -0.2140    -0.6150 ca         1 EZY      -0.066000
      8 C04         -3.7540     1.0750    -0.7040 ca         1 EZY      -0.133000
      9 C05         -3.0350     2.1770    -0.2180 ca         1 EZY      -0.084000
     10 C06         -1.7710     1.9880     0.3630 ca         1 EZY      -0.101000
     11 C07         -1.2050     0.7000     0.4650 ca         1 EZY       0.012700
     12 O01         -0.2350    -1.9910    -0.4020 o          1 EZY      -0.396000
     13 O02         -2.1670    -2.7150     0.3080 o          1 EZY      -0.396000
     14 H            1.1080    -0.2940    -0.4230 hn         1 EZY       0.447000
     15 HA2          2.8410     1.2960     1.3920 h1         1 EZY       0.010700
     16 HA3          2.6810    -0.4610     1.4220 h1         1 EZY       0.010700
     17 H08          0.1620    -0.3530     1.7650 h1         1 EZY       0.027200
     18 H05          0.2930     1.4020     1.8470 h1         1 EZY       0.027200
     19 H14         -3.7740    -1.0590    -1.0030 ha         1 EZY       0.134000
     20 H10         -4.7350     1.2210    -1.1520 ha         1 EZY       0.113000
     21 H11         -3.4580     3.1770    -0.2880 ha         1 EZY       0.112000
     22 H12         -1.2270     2.8500     0.7440 ha         1 EZY       0.134000
     23 OXT          4.6690     1.1450    -0.3130 o          1 EZY      -0.731000
     24 N01         -1.3830    -1.8010     0.0190 no         1 EZY       0.685200
@<TRIPOS>BOND
     1     1     2 1   
     2     1     5 1   
     3     1    14 1   
     4     2     3 1   
     5     2    15 1   
     6     2    16 1   
     7     3     4 1   
     8     3    23 1   
     9     5    11 1   
    10     5    17 1   
    11     5    18 1   
    12     6     7 ar  
    13     6    11 ar  
    14     6    24 1   
    15     7     8 ar  
    16     7    19 1   
    17     8     9 ar  
    18     8    20 1   
    19     9    10 ar  
    20     9    21 1   
    21    10    11 ar  
    22    10    22 1   
    23    12    24 1   
    24    13    24 1   
@<TRIPOS>SUBSTRUCTURE
     1 EZY         1 TEMP              0 ****  ****    0 ROOT
