@<TRIPOS>MOLECULE
EZZ
   43    46     1     0     0
SMALL
abcg2


@<TRIPOS>ATOM
      1 C4          -1.8350     0.8600     0.7200 ca         1 EZZ      -0.190000
      2 C5          -1.5320    -0.0610    -0.2620 ca         1 EZZ      -0.026300
      3 C6          -2.2900    -1.2020    -0.4480 ca         1 EZZ      -0.207600
      4 C7          -0.4090    -0.0290    -1.2670 c5         1 EZZ       0.236200
      5 C15          1.6200    -1.0120     0.0820 ca         1 EZZ      -0.083800
      6 C17          3.8010    -1.2250     1.1990 ca         1 EZZ      -0.133000
      7 C24          0.9610     3.4790     0.8380 c3         1 EZZ       0.145100
      8 C1          -3.3840    -1.4670     0.3630 ca         1 EZZ      -0.007000
      9 C11          0.9540     0.0190    -0.6560 cc         1 EZZ      -0.137400
     10 C12          1.7950     1.0990    -0.6810 cd         1 EZZ      -0.058300
     11 C14          2.8750    -0.4870     0.4650 ca         1 EZZ      -0.046200
     12 C16          1.2920    -2.3200     0.4640 ca         1 EZZ      -0.050000
     13 C18          3.4490    -2.5110     1.5600 ca         1 EZZ      -0.087000
     14 C19          2.2050    -3.0530     1.1970 ca         1 EZZ      -0.140000
     15 C2          -3.7010    -0.5640     1.3600 ca         1 EZZ      -0.162000
     16 C23          0.1290     4.3750    -1.2160 c3         1 EZZ       0.145100
     17 C3          -2.9340     0.5980     1.5370 ca         1 EZZ       0.157100
     18 C9          -1.7320    -1.9670    -1.5780 c          1 EZZ       0.584600
     19 N13          2.9450     0.7900    -0.0120 na         1 EZZ      -0.220700
     20 N21          0.5400     3.1790    -0.5140 n3         1 EZZ      -0.716600
     21 N8          -0.6630    -1.2550    -2.0050 ns         1 EZZ      -0.517900
     22 O10         -2.1380    -3.0220    -2.0410 o          1 EZZ      -0.554000
     23 O22         -3.3120     1.4330     2.5190 oh         1 EZZ      -0.532100
     24 H1          -1.2400     1.7600     0.8270 ha         1 EZZ       0.137000
     25 H2          -0.5370     0.8370    -1.9250 h1         1 EZZ       0.073700
     26 H3           4.7580    -0.8050     1.4820 ha         1 EZZ       0.112000
     27 H4           2.5140     3.0090    -1.3000 h1         1 EZZ       0.044200
     28 H5           1.2170     2.3540    -2.2880 h1         1 EZZ       0.044200
     29 H6           1.8480     4.1310     0.8770 h1         1 EZZ       0.034700
     30 H7           0.1540     3.9820     1.3730 h1         1 EZZ       0.034700
     31 H8           1.1930     2.5620     1.3810 h1         1 EZZ       0.034700
     32 H9          -3.9830    -2.3590     0.2270 ha         1 EZZ       0.134000
     33 H10          0.3390    -2.7570     0.1990 ha         1 EZZ       0.126000
     34 H11          4.1430    -3.1110     2.1340 ha         1 EZZ       0.111000
     35 H12          1.9600    -4.0620     1.5000 ha         1 EZZ       0.115000
     36 H13         -4.5480    -0.7390     2.0110 ha         1 EZZ       0.131000
     37 H14         -0.2260     4.1190    -2.2150 h1         1 EZZ       0.034700
     38 H15         -0.6940     4.8520    -0.6810 h1         1 EZZ       0.034700
     39 H16          0.9330     5.1200    -1.3240 h1         1 EZZ       0.034700
     40 H17          3.7200     1.4200     0.1170 hn         1 EZZ       0.348000
     41 H19         -0.0750    -1.5550    -2.7660 hn         1 EZZ       0.332500
     42 H20         -2.7270     2.1980     2.5590 ho         1 EZZ       0.466000
     43 C20          1.5600     2.4580    -1.2550 c3         1 EZZ       0.221000
@<TRIPOS>BOND
     1     1     2 ar  
     2     1    17 ar  
     3     1    24 1   
     4     2     3 ar  
     5     2     4 1   
     6     3     8 ar  
     7     3    18 1   
     8     4     9 1   
     9     4    21 1   
    10     4    25 1   
    11     5     9 1   
    12     5    11 ar  
    13     5    12 ar  
    14     6    11 ar  
    15     6    13 ar  
    16     6    26 1   
    17     7    20 1   
    18     7    29 1   
    19     7    30 1   
    20     7    31 1   
    21     8    15 ar  
    22     8    32 1   
    23     9    10 2   
    24    10    19 1   
    25    10    43 1   
    26    11    19 1   
    27    12    14 ar  
    28    12    33 1   
    29    13    14 ar  
    30    13    34 1   
    31    14    35 1   
    32    15    17 ar  
    33    15    36 1   
    34    16    20 1   
    35    16    37 1   
    36    16    38 1   
    37    16    39 1   
    38    17    23 1   
    39    18    21 1   
    40    18    22 2   
    41    19    40 1   
    42    20    43 1   
    43    21    41 1   
    44    23    42 1   
    45    27    43 1   
    46    28    43 1   
@<TRIPOS>SUBSTRUCTURE
     1 EZZ         1 TEMP              0 ****  ****    0 ROOT
