@<TRIPOS>MOLECULE
EZZ
   43    46     1     0     0
SMALL
No Charge or Current Charge


@<TRIPOS>ATOM
      1 C4          -1.8570     0.6540     1.0040 ca         1 EZZ      -0.190000
      2 C5          -1.5360    -0.0730    -0.1520 ca         1 EZZ      -0.026300
      3 C6          -2.1950    -1.2460    -0.4610 ca         1 EZZ      -0.207600
      4 C7          -0.5340     0.2250    -1.2430 c5         1 EZZ       0.236200
      5 C15          1.4730    -0.9300     0.1700 ca         1 EZZ      -0.083800
      6 C17          3.5990    -1.2770     1.2730 ca         1 EZZ      -0.133000
      7 C24          0.9550     3.7000     0.6430 c3         1 EZZ       0.145100
      8 C1          -3.2000    -1.7710     0.3620 ca         1 EZZ      -0.007000
      9 C11          0.8480     0.1110    -0.6150 cc         1 EZZ      -0.137400
     10 C12          1.7910     1.1380    -0.7020 cd         1 EZZ      -0.058300
     11 C14          2.7270    -0.4960     0.5020 ca         1 EZZ      -0.046200
     12 C16          1.0000    -2.1840     0.5930 ca         1 EZZ      -0.050000
     13 C18          3.1530    -2.5420     1.7080 ca         1 EZZ      -0.087000
     14 C19          1.8570    -2.9930     1.3690 ca         1 EZZ      -0.140000
     15 C2          -3.5320    -1.0550     1.5320 ca         1 EZZ      -0.162000
     16 C23          0.3920     4.5830    -1.5820 c3         1 EZZ       0.145100
     17 C3          -2.8650     0.1490     1.8500 ca         1 EZZ       0.157100
     18 C9          -1.6260    -1.7900    -1.7220 c          1 EZZ       0.584600
     19 N13          2.9670     0.7630    -0.0120 na         1 EZZ      -0.220700
     20 N21          0.6520     3.3750    -0.7700 n3         1 EZZ      -0.716600
     21 N8          -0.6260    -0.9380    -2.1360 ns         1 EZZ      -0.517900
     22 O10         -1.9620    -2.8140    -2.2940 o          1 EZZ      -0.554000
     23 O22         -3.2050     0.8230     2.9840 oh         1 EZZ      -0.532100
     24 H1          -1.3360     1.5810     1.2300 ha         1 EZZ       0.137000
     25 H2          -0.7210     1.1850    -1.7430 h1         1 EZZ       0.073700
     26 H3           4.5940    -0.9190     1.5300 ha         1 EZZ       0.112000
     27 H4           2.6410     2.9710    -1.4080 h1         1 EZZ       0.044200
     28 H5           1.3870     2.2870    -2.4410 h1         1 EZZ       0.044200
     29 H6           1.9040     4.2460     0.7250 h1         1 EZZ       0.034700
     30 H7           0.1620     4.3250     1.0750 h1         1 EZZ       0.034700
     31 H8           1.0280     2.7890     1.2520 h1         1 EZZ       0.034700
     32 H9          -3.7050    -2.7020     0.1110 ha         1 EZZ       0.134000
     33 H10          0.0060    -2.5340     0.3380 ha         1 EZZ       0.126000
     34 H11          3.8080    -3.1710     2.3080 ha         1 EZZ       0.111000
     35 H12          1.5170    -3.9680     1.7090 ha         1 EZZ       0.115000
     36 H13         -4.3060    -1.4340     2.1940 ha         1 EZZ       0.131000
     37 H14          0.0860     4.3090    -2.6000 h1         1 EZZ       0.034700
     38 H15         -0.4140     5.1830    -1.1380 h1         1 EZZ       0.034700
     39 H16          1.2910     5.2110    -1.6500 h1         1 EZZ       0.034700
     40 H17          3.8130     1.3130     0.0930 hn         1 EZZ       0.348000
     41 H19         -0.0980    -1.1190    -2.9800 hn         1 EZZ       0.332500
     42 H20         -2.6470     1.6270     3.0440 ho         1 EZZ       0.466000
     43 C20          1.6590     2.4790    -1.3940 c3         1 EZZ       0.221000
@<TRIPOS>BOND
     1     1     2 ar  
     2     1    17 ar  
     3     1    24 1   
     4     2     3 ar  
     5     2     4 1   
     6     3     8 ar  
     7     3    18 1   
     8     4     9 1   
     9     4    21 1   
    10     4    25 1   
    11     5     9 1   
    12     5    11 ar  
    13     5    12 ar  
    14     6    11 ar  
    15     6    13 ar  
    16     6    26 1   
    17     7    20 1   
    18     7    29 1   
    19     7    30 1   
    20     7    31 1   
    21     8    15 ar  
    22     8    32 1   
    23     9    10 2   
    24    10    19 1   
    25    10    43 1   
    26    11    19 1   
    27    12    14 ar  
    28    12    33 1   
    29    13    14 ar  
    30    13    34 1   
    31    14    35 1   
    32    15    17 ar  
    33    15    36 1   
    34    16    20 1   
    35    16    37 1   
    36    16    38 1   
    37    16    39 1   
    38    17    23 1   
    39    18    21 1   
    40    18    22 2   
    41    19    40 1   
    42    20    43 1   
    43    21    41 1   
    44    23    42 1   
    45    27    43 1   
    46    28    43 1   
@<TRIPOS>SUBSTRUCTURE
     1 EZZ         1 TEMP              0 ****  ****    0 ROOT
