@<TRIPOS>MOLECULE
F00
   55    55     1     0     0
SMALL
No Charge or Current Charge


@<TRIPOS>ATOM
      1 C4         -26.6540   -45.8750    -0.4770 c6         1 F00       0.117300
      2 C5         -27.8730   -46.2320    -1.3910 c6         1 F00       0.141300
      3 C6         -29.1970   -45.5460    -0.9150 c3         1 F00       0.168600
      4 C3         -25.3620   -46.5290    -1.0740 c6         1 F00       0.141300
      5 CAN        -22.4910   -46.6650     1.3750 c3         1 F00      -0.089400
      6 CAO        -22.0030   -47.5500     2.5430 c3         1 F00      -0.075400
      7 CAP        -20.6600   -47.0670     3.1440 c3         1 F00      -0.073400
      8 CAQ        -20.1340   -47.9230     4.3250 c3         1 F00      -0.071400
      9 CAR        -20.5520   -47.4540     5.7430 c3         1 F00      -0.074400
     10 CAS        -22.0710   -47.4650     6.0270 c3         1 F00      -0.076400
     11 CAT        -22.4110   -47.1560     7.5040 c3         1 F00      -0.070400
     12 CAU        -23.9210   -47.2070     7.8280 c3         1 F00      -0.044200
     13 CAV        -24.7230   -46.1340     7.1170 c2         1 F00      -0.214200
     14 CAW        -25.2630   -45.0560     7.7050 c2         1 F00      -0.323000
     15 C1         -26.4470   -46.3900    -3.3870 c6         1 F00       0.390300
     16 O1         -26.6830   -47.7960    -3.5010 oh         1 F00      -0.661000
     17 C2         -25.1710   -46.0440    -2.5380 c6         1 F00       0.155300
     18 O2         -23.9400   -46.5700    -3.0860 oh         1 F00      -0.700000
     19 O3         -24.1550   -46.2510    -0.3090 os         1 F00      -0.483000
     20 O4         -26.8870   -46.2730     0.8880 oh         1 F00      -0.714000
     21 O5         -27.6140   -45.8150    -2.7660 os         1 F00      -0.471000
     22 O6         -30.3210   -45.8170    -1.7760 oh         1 F00      -0.705000
     23 H1         -26.5240   -44.7830    -0.5150 h1         1 F00       0.048700
     24 H2         -28.0350   -47.3190    -1.3650 h1         1 F00       0.074700
     25 H3         -29.0210   -44.4630    -0.8600 h1         1 F00       0.023200
     26 H4         -29.4210   -45.8920     0.1030 h1         1 F00       0.023200
     27 H5         -25.5080   -47.6200    -1.1020 h1         1 F00       0.076700
     28 H6         -24.5930   -47.1530     1.5490 h1         1 F00       0.035200
     29 H7         -23.7030   -48.1740     0.3960 h1         1 F00       0.035200
     30 H8         -21.7260   -46.6480     0.5890 hc         1 F00       0.047700
     31 H9         -22.6140   -45.6340     1.7300 hc         1 F00       0.047700
     32 H10        -22.7790   -47.5760     3.3140 hc         1 F00       0.039200
     33 H11        -21.8820   -48.5800     2.1840 hc         1 F00       0.039200
     34 H12        -19.9080   -47.0860     2.3460 hc         1 F00       0.038700
     35 H13        -20.7470   -46.0190     3.4590 hc         1 F00       0.038700
     36 H14        -20.4240   -48.9710     4.1830 hc         1 F00       0.038700
     37 H15        -19.0370   -47.9090     4.2880 hc         1 F00       0.038700
     38 H16        -20.0540   -48.1030     6.4730 hc         1 F00       0.036700
     39 H17        -20.1640   -46.4420     5.9140 hc         1 F00       0.036700
     40 H18        -22.5560   -46.7160     5.3920 hc         1 F00       0.039700
     41 H19        -22.4840   -48.4450     5.7580 hc         1 F00       0.039700
     42 H20        -21.8940   -47.8810     8.1460 hc         1 F00       0.038700
     43 H21        -22.0200   -46.1660     7.7690 hc         1 F00       0.038700
     44 H22        -24.3140   -48.1990     7.5740 hc         1 F00       0.043200
     45 H23        -24.0400   -47.1030     8.9140 hc         1 F00       0.043200
     46 H24        -24.8610   -46.3040     6.0470 ha         1 F00       0.165000
     47 H25        -25.8380   -44.3230     7.1360 ha         1 F00       0.160000
     48 H26        -25.1480   -44.8640     8.7740 ha         1 F00       0.160000
     49 H27        -26.3260   -45.9550    -4.3920 h2         1 F00       0.076700
     50 H28        -27.5470   -47.8660    -3.9580 ho         1 F00       0.457000
     51 H29        -25.0990   -44.9470    -2.5090 h1         1 F00       0.048700
     52 H30        -23.3100   -46.5700    -2.3260 ho         1 F00       0.519000
     53 H31        -26.1640   -45.8710     1.4220 ho         1 F00       0.506000
     54 H32        -31.0790   -45.2880    -1.4320 ho         1 F00       0.502000
     55 CAM        -23.8220   -47.1480     0.7700 c3         1 F00       0.173600
@<TRIPOS>BOND
     1     1     2 1   
     2     1     4 1   
     3     1    20 1   
     4     1    23 1   
     5     2     3 1   
     6     2    21 1   
     7     2    24 1   
     8     3    22 1   
     9     3    25 1   
    10     3    26 1   
    11     4    17 1   
    12     4    19 1   
    13     4    27 1   
    14     5     6 1   
    15     5    30 1   
    16     5    31 1   
    17     5    55 1   
    18     6     7 1   
    19     6    32 1   
    20     6    33 1   
    21     7     8 1   
    22     7    34 1   
    23     7    35 1   
    24     8     9 1   
    25     8    36 1   
    26     8    37 1   
    27     9    10 1   
    28     9    38 1   
    29     9    39 1   
    30    10    11 1   
    31    10    40 1   
    32    10    41 1   
    33    11    12 1   
    34    11    42 1   
    35    11    43 1   
    36    12    13 1   
    37    12    44 1   
    38    12    45 1   
    39    13    14 2   
    40    13    46 1   
    41    14    47 1   
    42    14    48 1   
    43    15    16 1   
    44    15    17 1   
    45    15    21 1   
    46    15    49 1   
    47    16    50 1   
    48    17    18 1   
    49    17    51 1   
    50    18    52 1   
    51    19    55 1   
    52    20    53 1   
    53    22    54 1   
    54    28    55 1   
    55    29    55 1   
@<TRIPOS>SUBSTRUCTURE
     1 F00         1 TEMP              0 ****  ****    0 ROOT
