@<TRIPOS>MOLECULE
F00
   55    55     1     0     0
SMALL
abcg2


@<TRIPOS>ATOM
      1 C4         -27.0060   -46.3080    -0.5510 c6         1 F00       0.117300
      2 C5         -27.8590   -46.5470    -1.8060 c6         1 F00       0.141300
      3 C6         -29.3260   -46.2880    -1.5360 c3         1 F00       0.168600
      4 C3         -25.5290   -46.4220    -0.9070 c6         1 F00       0.141300
      5 CAN        -22.8990   -46.6930     1.5900 c3         1 F00      -0.089400
      6 CAO        -22.4300   -47.6970     2.6350 c3         1 F00      -0.075400
      7 CAP        -21.0090   -47.4250     3.1190 c3         1 F00      -0.073400
      8 CAQ        -20.5120   -48.4040     4.1920 c3         1 F00      -0.071400
      9 CAR        -20.5810   -47.8740     5.6220 c3         1 F00      -0.074400
     10 CAS        -21.9750   -47.4880     6.1020 c3         1 F00      -0.076400
     11 CAT        -21.9740   -47.0040     7.5480 c3         1 F00      -0.070400
     12 CAU        -23.3610   -46.6570     8.0990 c3         1 F00      -0.044200
     13 CAV        -24.0330   -45.5370     7.3670 c2         1 F00      -0.214200
     14 CAW        -24.3090   -44.3480     7.8910 c2         1 F00      -0.323000
     15 C1         -26.1290   -45.7850    -3.2600 c6         1 F00       0.390300
     16 O1         -25.8220   -47.0400    -3.7680 oh         1 F00      -0.661000
     17 C2         -25.2100   -45.4960    -2.0790 c6         1 F00       0.155300
     18 O2         -23.8790   -45.6160    -2.5010 oh         1 F00      -0.700000
     19 O3         -24.6860   -46.0290     0.1480 os         1 F00      -0.483000
     20 O4         -27.3030   -47.2580     0.4480 oh         1 F00      -0.714000
     21 O5         -27.4650   -45.6730    -2.8500 os         1 F00      -0.471000
     22 O6         -30.0710   -46.6210    -2.6830 oh         1 F00      -0.705000
     23 H1         -27.1940   -45.2850    -0.1910 h1         1 F00       0.048700
     24 H2         -27.7380   -47.5960    -2.1110 h1         1 F00       0.074700
     25 H3         -29.4570   -45.2340    -1.2540 h1         1 F00       0.023200
     26 H4         -29.6300   -46.8920    -0.6730 h1         1 F00       0.023200
     27 H5         -25.3160   -47.4620    -1.1950 h1         1 F00       0.076700
     28 H6         -24.9930   -47.0880     1.9020 h1         1 F00       0.035200
     29 H7         -24.2700   -48.0110     0.5880 h1         1 F00       0.035200
     30 H8         -22.1920   -46.6730     0.7540 hc         1 F00       0.047700
     31 H9         -22.9010   -45.6880     2.0250 hc         1 F00       0.047700
     32 H10        -23.1250   -47.6950     3.4800 hc         1 F00       0.039200
     33 H11        -22.4710   -48.7090     2.2170 hc         1 F00       0.039200
     34 H12        -20.3430   -47.4620     2.2520 hc         1 F00       0.038700
     35 H13        -20.9440   -46.3970     3.4950 hc         1 F00       0.038700
     36 H14        -21.0780   -49.3400     4.1230 hc         1 F00       0.038700
     37 H15        -19.4730   -48.6730     3.9860 hc         1 F00       0.038700
     38 H16        -20.1690   -48.6290     6.2990 hc         1 F00       0.036700
     39 H17        -19.9250   -47.0020     5.7080 hc         1 F00       0.036700
     40 H18        -22.3790   -46.7050     5.4530 hc         1 F00       0.039700
     41 H19        -22.6520   -48.3440     6.0040 hc         1 F00       0.039700
     42 H20        -21.5340   -47.7780     8.1840 hc         1 F00       0.038700
     43 H21        -21.3240   -46.1280     7.6370 hc         1 F00       0.038700
     44 H22        -23.9920   -47.5510     8.0470 hc         1 F00       0.043200
     45 H23        -23.2720   -46.3970     9.1570 hc         1 F00       0.043200
     46 H24        -24.3030   -45.7250     6.3310 ha         1 F00       0.165000
     47 H25        -24.7900   -43.5690     7.3140 ha         1 F00       0.160000
     48 H26        -24.0640   -44.1110     8.9210 ha         1 F00       0.160000
     49 H27        -26.0070   -45.0070    -4.0230 h2         1 F00       0.076700
     50 H28        -26.2550   -47.1460    -4.6220 ho         1 F00       0.457000
     51 H29        -25.4310   -44.4660    -1.7610 h1         1 F00       0.048700
     52 H30        -23.3190   -45.4280    -1.7400 ho         1 F00       0.519000
     53 H31        -27.9840   -46.9010     1.0250 ho         1 F00       0.506000
     54 H32        -31.0030   -46.5060    -2.4740 ho         1 F00       0.502000
     55 CAM        -24.2840   -47.0250     1.0700 c3         1 F00       0.173600
@<TRIPOS>BOND
     1     1     2 1   
     2     1     4 1   
     3     1    20 1   
     4     1    23 1   
     5     2     3 1   
     6     2    21 1   
     7     2    24 1   
     8     3    22 1   
     9     3    25 1   
    10     3    26 1   
    11     4    17 1   
    12     4    19 1   
    13     4    27 1   
    14     5     6 1   
    15     5    30 1   
    16     5    31 1   
    17     5    55 1   
    18     6     7 1   
    19     6    32 1   
    20     6    33 1   
    21     7     8 1   
    22     7    34 1   
    23     7    35 1   
    24     8     9 1   
    25     8    36 1   
    26     8    37 1   
    27     9    10 1   
    28     9    38 1   
    29     9    39 1   
    30    10    11 1   
    31    10    40 1   
    32    10    41 1   
    33    11    12 1   
    34    11    42 1   
    35    11    43 1   
    36    12    13 1   
    37    12    44 1   
    38    12    45 1   
    39    13    14 2   
    40    13    46 1   
    41    14    47 1   
    42    14    48 1   
    43    15    16 1   
    44    15    17 1   
    45    15    21 1   
    46    15    49 1   
    47    16    50 1   
    48    17    18 1   
    49    17    51 1   
    50    18    52 1   
    51    19    55 1   
    52    20    53 1   
    53    22    54 1   
    54    28    55 1   
    55    29    55 1   
@<TRIPOS>SUBSTRUCTURE
     1 F00         1 TEMP              0 ****  ****    0 ROOT
