@<TRIPOS>MOLECULE
F01
   30    31     1     0     0
SMALL
abcg2


@<TRIPOS>ATOM
      1 O1          -0.1330     0.7630     1.6020 o          1 F01      -0.558000
      2 C6           0.8520     0.5170     0.9220 c          1 F01       0.725400
      3 N1           2.0780     0.9980     1.2240 nc         1 F01      -0.769100
      4 C7           3.1340     0.7290     0.4900 cd         1 F01       0.776500
      5 N2           4.3180     1.2260     0.8300 nv         1 F01      -1.026200
      6 C8           3.0070    -0.0950    -0.6690 cd         1 F01      -0.147100
      7 F1           4.0920    -0.3620    -1.4120 f          1 F01      -0.163500
      8 C9           1.7990    -0.5780    -0.9870 cc         1 F01      -0.005400
      9 N3           0.7190    -0.2970    -0.2100 n          1 F01      -0.313000
     10 C1          -0.5860    -0.7920    -0.6270 c5         1 F01       0.326700
     11 O4          -1.3850     0.2840    -1.0300 os         1 F01      -0.430000
     12 C4          -2.6950     0.1780    -0.4990 c5         1 F01       0.174300
     13 C5          -3.2370     1.5500    -0.1810 c3         1 F01       0.160600
     14 O5          -3.4160     2.2720    -1.3760 oh         1 F01      -0.709000
     15 C3          -2.5780    -0.7040     0.7430 c5         1 F01       0.094300
     16 O3          -3.7660    -1.4350     0.9210 oh         1 F01      -0.717000
     17 C2          -1.3720    -1.6050     0.4160 c5         1 F01       0.114300
     18 O2          -1.8010    -2.7900    -0.2050 oh         1 F01      -0.723000
     19 HN2          4.3990     1.7990     1.6530 hn         1 F01       0.510500
     20 HN2A         5.1520     1.0430     0.3000 hn         1 F01       0.510500
     21 H9           1.6460    -1.2030    -1.8570 h4         1 F01       0.222000
     22 H1          -0.3800    -1.4520    -1.4750 h2         1 F01       0.078700
     23 H4          -3.3540    -0.3170    -1.2270 h1         1 F01       0.077700
     24 H5          -4.1840     1.4140     0.3570 h1         1 F01       0.035700
     25 H5A         -2.5410     2.0520     0.5040 h1         1 F01       0.035700
     26 HO5         -3.7820     3.1320    -1.1510 ho         1 F01       0.504000
     27 H3          -2.3530    -0.0960     1.6200 h1         1 F01       0.088700
     28 HO3         -3.8780    -1.6220     1.8580 ho         1 F01       0.517000
     29 H2          -0.7690    -1.8280     1.3030 h1         1 F01       0.078700
     30 HO2         -2.7070    -2.9500     0.0950 ho         1 F01       0.529000
@<TRIPOS>BOND
     1     1     2 2   
     2     2     3 1   
     3     2     9 1   
     4     3     4 2   
     5     4     5 1   
     6     4     6 1   
     7     5    19 1   
     8     5    20 1   
     9     6     7 1   
    10     6     8 2   
    11     8     9 1   
    12     8    21 1   
    13     9    10 1   
    14    10    11 1   
    15    10    17 1   
    16    10    22 1   
    17    11    12 1   
    18    12    13 1   
    19    12    15 1   
    20    12    23 1   
    21    13    14 1   
    22    13    24 1   
    23    13    25 1   
    24    14    26 1   
    25    15    16 1   
    26    15    17 1   
    27    15    27 1   
    28    16    28 1   
    29    17    18 1   
    30    17    29 1   
    31    18    30 1   
@<TRIPOS>SUBSTRUCTURE
     1 F01         1 TEMP              0 ****  ****    0 ROOT
