@<TRIPOS>MOLECULE
F01
   30    31     1     0     0
SMALL
No Charge or Current Charge


@<TRIPOS>ATOM
      1 O1           0.1070     1.3610     1.3420 o          1 F01      -0.558000
      2 C6           1.0180     0.8470     0.7180 c          1 F01       0.725400
      3 N1           2.3070     1.1730     1.0580 nc         1 F01      -0.769100
      4 C7           3.3090     0.6200     0.4510 cd         1 F01       0.776500
      5 N2           4.4950     1.0320     0.8940 nv         1 F01      -1.026200
      6 C8           3.1800    -0.3680    -0.5820 cd         1 F01      -0.147100
      7 F1           4.2690    -0.9210    -1.1570 f          1 F01      -0.163500
      8 C9           1.9030    -0.7150    -0.9490 cc         1 F01      -0.005400
      9 N3           0.8160    -0.1020    -0.3160 n          1 F01      -0.313000
     10 C1          -0.5580    -0.4460    -0.7830 c5         1 F01       0.326700
     11 O4          -1.4500     0.6850    -0.8480 os         1 F01      -0.430000
     12 C4          -2.7490     0.2100    -0.4380 c5         1 F01       0.174300
     13 C5          -3.6980     1.4020    -0.1300 c3         1 F01       0.160600
     14 O5          -4.1000     2.0850    -1.3350 oh         1 F01      -0.709000
     15 C3          -2.3970    -0.6900     0.7900 c5         1 F01       0.094300
     16 O3          -3.4560    -1.5930     1.1830 oh         1 F01      -0.717000
     17 C2          -1.1790    -1.4880     0.2260 c5         1 F01       0.114300
     18 O2          -1.6890    -2.6650    -0.4170 oh         1 F01      -0.723000
     19 HN2          4.4550     1.4750     1.8020 hn         1 F01       0.510500
     20 HN2A         5.2680     0.3980     0.7400 hn         1 F01       0.510500
     21 H9           1.6370    -1.4410    -1.7120 h4         1 F01       0.222000
     22 H1          -0.4630    -0.8950    -1.7800 h2         1 F01       0.078700
     23 H4          -3.1850    -0.3900    -1.2500 h1         1 F01       0.077700
     24 H5          -4.5840     1.0160     0.3920 h1         1 F01       0.035700
     25 H5A         -3.1870     2.0930     0.5540 h1         1 F01       0.035700
     26 HO5         -4.6410     2.8620    -1.0600 ho         1 F01       0.504000
     27 H3          -2.0790    -0.0650     1.6390 h1         1 F01       0.088700
     28 HO3         -4.0160    -1.1310     1.8540 ho         1 F01       0.517000
     29 H2          -0.4770    -1.7570     1.0280 h1         1 F01       0.078700
     30 HO2         -2.5790    -2.7610     0.0190 ho         1 F01       0.529000
@<TRIPOS>BOND
     1     1     2 2   
     2     2     3 1   
     3     2     9 1   
     4     3     4 2   
     5     4     5 1   
     6     4     6 1   
     7     5    19 1   
     8     5    20 1   
     9     6     7 1   
    10     6     8 2   
    11     8     9 1   
    12     8    21 1   
    13     9    10 1   
    14    10    11 1   
    15    10    17 1   
    16    10    22 1   
    17    11    12 1   
    18    12    13 1   
    19    12    15 1   
    20    12    23 1   
    21    13    14 1   
    22    13    24 1   
    23    13    25 1   
    24    14    26 1   
    25    15    16 1   
    26    15    17 1   
    27    15    27 1   
    28    16    28 1   
    29    17    18 1   
    30    17    29 1   
    31    18    30 1   
@<TRIPOS>SUBSTRUCTURE
     1 F01         1 TEMP              0 ****  ****    0 ROOT
