@<TRIPOS>MOLECULE
F02
   32    32     1     0     0
SMALL
bcc


@<TRIPOS>ATOM
      1 C1          -0.7900     1.2860    -0.3580 ca         1 F02      -0.039500
      2 C2          -1.5980     0.1730    -0.1250 ca         1 F02      -0.222600
      3 C3          -0.9510    -1.0350     0.1400 ca         1 F02      -0.039500
      4 C4           0.4250    -1.1300     0.1840 ca         1 F02      -0.232000
      5 C5           1.2480    -0.0020    -0.0270 ca         1 F02       0.237600
      6 C6           0.5850     1.2150    -0.3010 ca         1 F02      -0.232000
      7 N7           2.6040    -0.0840     0.0240 nh         1 F02      -0.692000
      8 C8           3.4510     1.0520    -0.2900 c3         1 F02       0.227800
      9 C9           3.7160     1.9540     0.9080 c3         1 F02      -0.116600
     10 C10          3.2870    -1.3090     0.3940 c3         1 F02       0.227800
     11 C11          3.5480    -2.2330    -0.7870 c3         1 F02      -0.116600
     12 C12         -3.0730     0.3330    -0.2050 c          1 F02       0.711700
     13 O13         -3.5860     1.2650    -0.8100 o          1 F02      -0.574100
     14 N14         -3.7910    -0.6100     0.4440 ns         1 F02      -0.480300
     15 N15         -5.1740    -0.5910     0.4250 n8         1 F02      -0.607800
     16 H1          -1.2480     2.2420    -0.5770 ha         1 F02       0.133500
     17 H3          -1.5130    -1.9490     0.2880 ha         1 F02       0.133500
     18 H4           0.8560    -2.1030     0.3680 ha         1 F02       0.132000
     19 H6           1.1460     2.1240    -0.4640 ha         1 F02       0.132000
     20 H8           4.3970     0.6630    -0.6710 h1         1 F02       0.047950
     21 H8A          3.0210     1.6240    -1.1130 h1         1 F02       0.047950
     22 H9           4.2060     1.4010     1.7100 hc         1 F02       0.042367
     23 H9A          4.3690     2.7810     0.6250 hc         1 F02       0.042367
     24 H9B          2.7930     2.3760     1.3060 hc         1 F02       0.042367
     25 H10          4.2350    -1.0310     0.8590 h1         1 F02       0.047950
     26 H10A         2.7260    -1.8310     1.1720 h1         1 F02       0.047950
     27 H11          2.6190    -2.5590    -1.2560 hc         1 F02       0.042367
     28 H11A         4.1520    -1.7350    -1.5470 hc         1 F02       0.042367
     29 H11B         4.0890    -3.1230    -0.4620 hc         1 F02       0.042367
     30 HN14        -3.3260    -1.2800     1.0380 hn         1 F02       0.296500
     31 HN15        -5.5090    -1.4950     0.1210 hn         1 F02       0.338300
     32 HN1A        -5.5190    -0.4400     1.3650 hn         1 F02       0.338300
@<TRIPOS>BOND
     1     1     2 ar  
     2     1     6 ar  
     3     1    16 1   
     4     2     3 ar  
     5     2    12 1   
     6     3     4 ar  
     7     3    17 1   
     8     4     5 ar  
     9     4    18 1   
    10     5     6 ar  
    11     5     7 1   
    12     6    19 1   
    13     7     8 1   
    14     7    10 1   
    15     8     9 1   
    16     8    20 1   
    17     8    21 1   
    18     9    22 1   
    19     9    23 1   
    20     9    24 1   
    21    10    11 1   
    22    10    25 1   
    23    10    26 1   
    24    11    27 1   
    25    11    28 1   
    26    11    29 1   
    27    12    13 2   
    28    12    14 1   
    29    14    15 1   
    30    14    30 1   
    31    15    31 1   
    32    15    32 1   
@<TRIPOS>SUBSTRUCTURE
     1 F02         1 TEMP              0 ****  ****    0 ROOT
