@<TRIPOS>MOLECULE
F02
   32    32     1     0     0
SMALL
No Charge or Current Charge


@<TRIPOS>ATOM
      1 C1          -0.8610     1.4430     0.1160 ca         1 F02      -0.021500
      2 C2          -1.6830     0.2960     0.1290 ca         1 F02      -0.222600
      3 C3          -1.0620    -0.9740     0.1100 ca         1 F02      -0.021500
      4 C4           0.3390    -1.0820     0.0780 ca         1 F02      -0.214000
      5 C5           1.1590     0.0610     0.0630 ca         1 F02       0.376000
      6 C6           0.5380     1.3230     0.0820 ca         1 F02      -0.214000
      7 N7           2.5750    -0.0560     0.0300 nh         1 F02      -0.830400
      8 C8           3.4220     0.9670    -0.6300 c3         1 F02       0.227800
      9 C9           4.0940     1.9460     0.3510 c3         1 F02      -0.116600
     10 C10          3.2720    -1.2070     0.6560 c3         1 F02       0.227800
     11 C11          3.7300    -2.2790    -0.3520 c3         1 F02      -0.116600
     12 C12         -3.1900     0.4610     0.1650 c          1 F02       0.644700
     13 O13         -3.7200     1.5660     0.1800 o          1 F02      -0.574100
     14 N14         -3.9510    -0.7140     0.1790 ns         1 F02      -0.413300
     15 N15         -5.4130    -0.7760     0.2120 n8         1 F02      -0.718200
     16 H1          -1.3030     2.4370     0.1330 ha         1 F02       0.115500
     17 H3          -1.6460    -1.8910     0.1160 ha         1 F02       0.115500
     18 H4           0.7790    -2.0730     0.0520 ha         1 F02       0.114000
     19 H6           1.1340     2.2290     0.0830 ha         1 F02       0.114000
     20 H8           4.2070     0.4750    -1.2200 h1         1 F02       0.047950
     21 H8A          2.8240     1.5430    -1.3490 h1         1 F02       0.047950
     22 H9           4.7790     1.4170     1.0240 hc         1 F02       0.042367
     23 H9A          4.6720     2.6960    -0.2010 hc         1 F02       0.042367
     24 H9B          3.3470     2.4680     0.9590 hc         1 F02       0.042367
     25 H10          4.1530    -0.8520     1.2080 h1         1 F02       0.047950
     26 H10A         2.6210    -1.6800     1.4040 h1         1 F02       0.047950
     27 H11          2.8800    -2.6690    -0.9230 hc         1 F02       0.042367
     28 H11A         4.4600    -1.8670    -1.0570 hc         1 F02       0.042367
     29 H11B         4.2010    -3.1160     0.1770 hc         1 F02       0.042367
     30 HN14        -3.4250    -1.5860     0.1640 hn         1 F02       0.296500
     31 HN15        -5.7880    -1.2760    -0.6080 hn         1 F02       0.393500
     32 HN1A        -5.7500    -1.2810     1.0460 hn         1 F02       0.393500
@<TRIPOS>BOND
     1     1     2 ar  
     2     1     6 ar  
     3     1    16 1   
     4     2     3 ar  
     5     2    12 1   
     6     3     4 ar  
     7     3    17 1   
     8     4     5 ar  
     9     4    18 1   
    10     5     6 ar  
    11     5     7 1   
    12     6    19 1   
    13     7     8 1   
    14     7    10 1   
    15     8     9 1   
    16     8    20 1   
    17     8    21 1   
    18     9    22 1   
    19     9    23 1   
    20     9    24 1   
    21    10    11 1   
    22    10    25 1   
    23    10    26 1   
    24    11    27 1   
    25    11    28 1   
    26    11    29 1   
    27    12    13 2   
    28    12    14 1   
    29    14    15 1   
    30    14    30 1   
    31    15    31 1   
    32    15    32 1   
@<TRIPOS>SUBSTRUCTURE
     1 F02         1 TEMP              0 ****  ****    0 ROOT
