@<TRIPOS>MOLECULE
F03
   24    25     1     0     0
SMALL
abcg2


@<TRIPOS>ATOM
      1 C1          21.9930   -15.2330   -39.3120 c3         1 F03      -0.175100
      2 C2          21.4860   -14.2350   -38.3100 c          1 F03       0.619100
      3 O3          21.0480   -13.1340   -38.6210 o          1 F03      -0.576100
      4 N4          21.5620   -14.6610   -37.0040 ns         1 F03      -0.438400
      5 C5          21.1970   -13.9850   -35.8500 cc         1 F03       0.568500
      6 N6          20.6790   -12.7330   -35.9870 ns         1 F03      -0.439400
      7 C7          20.2780   -11.9520   -34.9150 c          1 F03       0.587600
      8 O8          19.8210   -10.8300   -35.1050 o          1 F03      -0.530000
      9 C9          20.4590   -12.5980   -33.6200 ca         1 F03      -0.218600
     10 C10         20.1010   -11.9430   -32.4350 ca         1 F03      -0.032000
     11 C11         20.2790   -12.5660   -31.2170 ca         1 F03      -0.143000
     12 C12         20.8220   -13.8590   -31.1700 ca         1 F03      -0.068000
     13 C13         21.1810   -14.5180   -32.3290 ca         1 F03      -0.117000
     14 C14         21.0060   -13.9000   -33.5780 ca         1 F03       0.215400
     15 N15         21.3730   -14.5860   -34.7180 nd         1 F03      -0.697100
     16 H11C        21.8450   -14.8420   -40.3140 hc         1 F03       0.074700
     17 H12C        23.0550   -15.4220   -39.1430 hc         1 F03       0.074700
     18 H13C        21.4650   -16.1820   -39.2010 hc         1 F03       0.074700
     19 H4          21.9340   -15.5840   -36.8260 hn         1 F03       0.349500
     20 H6          20.5930   -12.3680   -36.9350 hn         1 F03       0.370500
     21 H10         19.6870   -10.9460   -32.4950 ha         1 F03       0.135000
     22 H11         20.0020   -12.0620   -30.3000 ha         1 F03       0.120000
     23 H12         20.9620   -14.3460   -30.2130 ha         1 F03       0.116000
     24 H13         21.6000   -15.5150   -32.2980 ha         1 F03       0.130000
@<TRIPOS>BOND
     1     1     2 1   
     2     1    16 1   
     3     1    17 1   
     4     1    18 1   
     5     2     3 2   
     6     2     4 1   
     7     4     5 1   
     8     4    19 1   
     9     5     6 1   
    10     5    15 2   
    11     6     7 1   
    12     6    20 1   
    13     7     8 2   
    14     7     9 1   
    15     9    10 ar  
    16     9    14 ar  
    17    10    11 ar  
    18    10    21 1   
    19    11    12 ar  
    20    11    22 1   
    21    12    13 ar  
    22    12    23 1   
    23    13    14 ar  
    24    13    24 1   
    25    14    15 1   
@<TRIPOS>SUBSTRUCTURE
     1 F03         1 TEMP              0 ****  ****    0 ROOT
