@<TRIPOS>MOLECULE
F03
   24    25     1     0     0
SMALL
No Charge or Current Charge


@<TRIPOS>ATOM
      1 C1          22.0100   -15.2930   -39.3070 c3         1 F03      -0.175100
      2 C2          21.4960   -14.2500   -38.3260 c          1 F03       0.619100
      3 O3          21.0600   -13.1690   -38.6950 o          1 F03      -0.576100
      4 N4          21.5600   -14.6170   -37.0080 ns         1 F03      -0.438400
      5 C5          21.1760   -13.8990   -35.9200 cc         1 F03       0.568500
      6 N6          20.6450   -12.6460   -35.9770 ns         1 F03      -0.439400
      7 C7          20.2540   -11.9030   -34.9230 c          1 F03       0.587600
      8 O8          19.7850   -10.7830   -35.0580 o          1 F03      -0.530000
      9 C9          20.4480   -12.5720   -33.6190 ca         1 F03      -0.218600
     10 C10         20.0920   -11.9390   -32.4090 ca         1 F03      -0.032000
     11 C11         20.2890   -12.6030   -31.1880 ca         1 F03      -0.143000
     12 C12         20.8400   -13.8940   -31.1740 ca         1 F03      -0.068000
     13 C13         21.1910   -14.5170   -32.3840 ca         1 F03      -0.117000
     14 C14         20.9990   -13.8650   -33.6170 ca         1 F03       0.215400
     15 N15         21.3760   -14.5540   -34.7830 nd         1 F03      -0.697100
     16 H11C        21.9410   -14.9590   -40.3490 hc         1 F03       0.074700
     17 H12C        23.0370   -15.5630   -39.0360 hc         1 F03       0.074700
     18 H13C        21.4700   -16.2330   -39.1470 hc         1 F03       0.074700
     19 H4          21.9380   -15.5330   -36.8230 hn         1 F03       0.349500
     20 H6          20.5300   -12.2260   -36.8880 hn         1 F03       0.370500
     21 H10         19.6650   -10.9380   -32.4130 ha         1 F03       0.135000
     22 H11         20.0160   -12.1170   -30.2540 ha         1 F03       0.120000
     23 H12         20.9940   -14.4120   -30.2300 ha         1 F03       0.116000
     24 H13         21.6170   -15.5160   -32.3670 ha         1 F03       0.130000
@<TRIPOS>BOND
     1     1     2 1   
     2     1    16 1   
     3     1    17 1   
     4     1    18 1   
     5     2     3 2   
     6     2     4 1   
     7     4     5 1   
     8     4    19 1   
     9     5     6 1   
    10     5    15 2   
    11     6     7 1   
    12     6    20 1   
    13     7     8 2   
    14     7     9 1   
    15     9    10 ar  
    16     9    14 ar  
    17    10    11 ar  
    18    10    21 1   
    19    11    12 ar  
    20    11    22 1   
    21    12    13 ar  
    22    12    23 1   
    23    13    14 ar  
    24    13    24 1   
    25    14    15 1   
@<TRIPOS>SUBSTRUCTURE
     1 F03         1 TEMP              0 ****  ****    0 ROOT
