@<TRIPOS>MOLECULE
F04
   26    27     1     0     0
SMALL
bcc


@<TRIPOS>ATOM
      1 C1          -3.6840    -0.2100     0.9960 c3         1 F04      -0.112100
      2 C2          -3.0330    -0.0420    -0.3660 c3         1 F04       0.116000
      3 N3          -1.5820     0.0910    -0.2760 n          1 F04      -0.208800
      4 C4          -0.7990    -1.0270    -0.2060 c          1 F04       0.695100
      5 O5          -1.2800    -2.1530    -0.2530 o          1 F04      -0.623500
      6 C6           0.6340    -0.7620    -0.0780 ca         1 F04      -0.144600
      7 C7           1.5380    -1.8250    -0.0220 ca         1 F04      -0.068000
      8 C8           2.8870    -1.5690     0.1030 ca         1 F04      -0.134000
      9 C9           3.3480    -0.2520     0.1770 ca         1 F04      -0.103000
     10 C10          2.4630     0.8040     0.1250 ca         1 F04      -0.120000
     11 C11          1.0900     0.5580    -0.0040 ca         1 F04      -0.118900
     12 C12          0.1040     1.6130    -0.0630 cc         1 F04       0.375900
     13 N13         -1.1490     1.3590    -0.1880 nd         1 F04      -0.436300
     14 C14          0.5080     3.0500     0.0190 c3         1 F04      -0.116400
     15 H11C        -3.4690     0.6400     1.6430 hc         1 F04       0.045367
     16 H12C        -4.7660    -0.2770     0.8800 hc         1 F04       0.045367
     17 H13C        -3.3440    -1.1190     1.4920 hc         1 F04       0.045367
     18 H21C        -3.2670    -0.8840    -1.0130 h1         1 F04       0.066200
     19 H22C        -3.3960     0.8600    -0.8560 h1         1 F04       0.066200
     20 H7           1.1750    -2.8420    -0.0790 ha         1 F04       0.159000
     21 H8           3.5910    -2.3890     0.1460 ha         1 F04       0.138000
     22 H9           4.4080    -0.0600     0.2750 ha         1 F04       0.135000
     23 H10          2.8320     1.8190     0.1830 ha         1 F04       0.139000
     24 H141         1.2160     3.3060    -0.7700 hc         1 F04       0.053700
     25 H142        -0.3630     3.6930    -0.0790 hc         1 F04       0.053700
     26 H143         0.9930     3.2690     0.9720 hc         1 F04       0.053700
@<TRIPOS>BOND
     1     1     2 1   
     2     1    15 1   
     3     1    16 1   
     4     1    17 1   
     5     2     3 1   
     6     2    18 1   
     7     2    19 1   
     8     3     4 1   
     9     3    13 1   
    10     4     5 2   
    11     4     6 1   
    12     6     7 ar  
    13     6    11 ar  
    14     7     8 ar  
    15     7    20 1   
    16     8     9 ar  
    17     8    21 1   
    18     9    10 ar  
    19     9    22 1   
    20    10    11 ar  
    21    10    23 1   
    22    11    12 1   
    23    12    13 2   
    24    12    14 1   
    25    14    24 1   
    26    14    25 1   
    27    14    26 1   
@<TRIPOS>SUBSTRUCTURE
     1 F04         1 TEMP              0 ****  ****    0 ROOT
