@<TRIPOS>MOLECULE
F04
   26    27     1     0     0
SMALL
No Charge or Current Charge


@<TRIPOS>ATOM
      1 C1          -3.8130    -0.0890     0.9920 c3         1 F04      -0.112100
      2 C2          -3.0780    -0.1100    -0.3630 c3         1 F04       0.116000
      3 N3          -1.6110     0.0620    -0.2310 n          1 F04      -0.141800
      4 C4          -0.7850    -1.0930    -0.2210 c          1 F04       0.552600
      5 O5          -1.2260    -2.2350    -0.3040 o          1 F04      -0.548000
      6 C6           0.6790    -0.8140    -0.0930 ca         1 F04      -0.144600
      7 C7           1.6210    -1.8640    -0.0680 ca         1 F04      -0.050000
      8 C8           2.9890    -1.5810     0.0530 ca         1 F04      -0.116000
      9 C9           3.4210    -0.2510     0.1500 ca         1 F04      -0.085000
     10 C10          2.4850     0.7970     0.1260 ca         1 F04      -0.102000
     11 C11          1.1000     0.5290     0.0040 ca         1 F04      -0.118900
     12 C12          0.0980     1.6190    -0.0240 cc         1 F04       0.375900
     13 N13         -1.2180     1.4060    -0.1400 nd         1 F04      -0.436300
     14 C14          0.5210     3.0630     0.0780 c3         1 F04      -0.116400
     15 H11C        -3.6440     0.8640     1.5090 hc         1 F04       0.045367
     16 H12C        -4.8910    -0.2130     0.8420 hc         1 F04       0.045367
     17 H13C        -3.4570    -0.9020     1.6360 hc         1 F04       0.045367
     18 H21C        -3.3030    -1.0500    -0.8830 h1         1 F04       0.066200
     19 H22C        -3.4730     0.6990    -0.9920 h1         1 F04       0.066200
     20 H7           1.2940    -2.9000    -0.1430 ha         1 F04       0.141000
     21 H8           3.7140    -2.3920     0.0720 ha         1 F04       0.120000
     22 H9           4.4820    -0.0290     0.2440 ha         1 F04       0.117000
     23 H10          2.8540     1.8170     0.2030 ha         1 F04       0.121000
     24 H141         1.1880     3.3310    -0.7500 hc         1 F04       0.053700
     25 H142        -0.3390     3.7430     0.0420 hc         1 F04       0.053700
     26 H143         1.0480     3.2470     1.0200 hc         1 F04       0.053700
@<TRIPOS>BOND
     1     1     2 1   
     2     1    15 1   
     3     1    16 1   
     4     1    17 1   
     5     2     3 1   
     6     2    18 1   
     7     2    19 1   
     8     3     4 1   
     9     3    13 1   
    10     4     5 2   
    11     4     6 1   
    12     6     7 ar  
    13     6    11 ar  
    14     7     8 ar  
    15     7    20 1   
    16     8     9 ar  
    17     8    21 1   
    18     9    10 ar  
    19     9    22 1   
    20    10    11 ar  
    21    10    23 1   
    22    11    12 1   
    23    12    13 2   
    24    12    14 1   
    25    14    24 1   
    26    14    25 1   
    27    14    26 1   
@<TRIPOS>SUBSTRUCTURE
     1 F04         1 TEMP              0 ****  ****    0 ROOT
