@<TRIPOS>MOLECULE
F05
   18    19     1     0     0
SMALL
No Charge or Current Charge


@<TRIPOS>ATOM
      1 C1          -2.7540     1.9730    11.4750 ca         1 F05      -0.096000
      2 C2          -1.4370     1.6370    11.8740 ca         1 F05      -0.118000
      3 C3          -0.3250     2.1910    11.2050 ca         1 F05      -0.069000
      4 C4          -0.5750     3.0750    10.1420 ca         1 F05      -0.199900
      5 C5          -1.8460     3.4020     9.7560 ca         1 F05      -0.096300
      6 C6          -2.9690     2.8660    10.4040 ca         1 F05      -0.093000
      7 C7          -1.7430     4.3660     8.6000 c5         1 F05       0.143100
      8 N8          -0.2550     4.5480     8.3630 n2         1 F05      -0.656900
      9 C9           0.3280     3.8140     9.2520 ce         1 F05       0.642800
     10 N10          1.6670     3.6150     9.3220 nv         1 F05      -1.019200
     11 H1          -3.6040     1.5410    11.9980 ha         1 F05       0.114000
     12 H2          -1.2820     0.9490    12.7020 ha         1 F05       0.115000
     13 H3           0.6890     1.9400    11.5100 ha         1 F05       0.114000
     14 H6          -3.9760     3.1320    10.0900 ha         1 F05       0.119000
     15 H7          -2.2360     3.9590     7.7050 h1         1 F05       0.077700
     16 HN10         2.1770     3.8930     8.4910 hn         1 F05       0.472000
     17 HN1A         1.9650     2.7520     9.7590 hn         1 F05       0.472000
     18 H4          -2.2210     5.3250     8.8460 h1         1 F05       0.077700
@<TRIPOS>BOND
     1     1     2 ar  
     2     1     6 ar  
     3     1    11 1   
     4     2     3 ar  
     5     2    12 1   
     6     3     4 ar  
     7     3    13 1   
     8     4     5 ar  
     9     4     9 1   
    10     5     6 ar  
    11     5     7 1   
    12     6    14 1   
    13     7     8 1   
    14     7    15 1   
    15     7    18 1   
    16     8     9 2   
    17     9    10 1   
    18    10    16 1   
    19    10    17 1   
@<TRIPOS>SUBSTRUCTURE
     1 F05         1 TEMP              0 ****  ****    0 ROOT
