@<TRIPOS>MOLECULE
F05
   18    19     1     0     0
SMALL
abcg2


@<TRIPOS>ATOM
      1 C1          -2.7520     2.0000    11.4860 ca         1 F05      -0.096000
      2 C2          -1.4570     1.6340    11.8620 ca         1 F05      -0.118000
      3 C3          -0.3510     2.1430    11.1860 ca         1 F05      -0.069000
      4 C4          -0.5800     3.0200    10.1310 ca         1 F05      -0.199900
      5 C5          -1.8720     3.3880     9.7540 ca         1 F05      -0.096300
      6 C6          -2.9720     2.8810    10.4280 ca         1 F05      -0.093000
      7 C7          -1.7410     4.3410     8.5980 c5         1 F05       0.143100
      8 N8          -0.3000     4.4730     8.3510 n2         1 F05      -0.656900
      9 C9           0.3250     3.7360     9.2140 ce         1 F05       0.642800
     10 N10          1.6810     3.6600     9.3170 nv         1 F05      -1.019200
     11 H1          -3.5960     1.5920    12.0270 ha         1 F05       0.114000
     12 H2          -1.3140     0.9490    12.6880 ha         1 F05       0.115000
     13 H3           0.6520     1.8610    11.4810 ha         1 F05       0.114000
     14 H6          -3.9800     3.1590    10.1460 ha         1 F05       0.119000
     15 H7          -2.2460     3.9680     7.7000 h1         1 F05       0.077700
     16 HN10         2.2170     4.0080     8.5360 hn         1 F05       0.472000
     17 HN1A         2.0710     2.8490     9.7700 hn         1 F05       0.472000
     18 H4          -2.1820     5.3180     8.8210 h1         1 F05       0.077700
@<TRIPOS>BOND
     1     1     2 ar  
     2     1     6 ar  
     3     1    11 1   
     4     2     3 ar  
     5     2    12 1   
     6     3     4 ar  
     7     3    13 1   
     8     4     5 ar  
     9     4     9 1   
    10     5     6 ar  
    11     5     7 1   
    12     6    14 1   
    13     7     8 1   
    14     7    15 1   
    15     7    18 1   
    16     8     9 2   
    17     9    10 1   
    18    10    16 1   
    19    10    17 1   
@<TRIPOS>SUBSTRUCTURE
     1 F05         1 TEMP              0 ****  ****    0 ROOT
