@<TRIPOS>MOLECULE
F06
   21    21     1     0     0
SMALL
No Charge or Current Charge


@<TRIPOS>ATOM
      1 C1           1.7490    -0.6320    -0.0060 ca         1 F06       0.136000
      2 Cl2          1.1020    -2.2740    -0.0200 cl         1 F06      -0.191000
      3 C3           3.0820    -0.4340    -0.4040 ca         1 F06      -0.106000
      4 C4           3.6350     0.8570    -0.4110 ca         1 F06      -0.095000
      5 C5           2.8510     1.9540    -0.0200 ca         1 F06      -0.111000
      6 C6           1.5170     1.7610     0.3790 ca         1 F06      -0.089000
      7 C7           0.9550     0.4680     0.3920 ca         1 F06      -0.077300
      8 C8          -0.4960     0.2880     0.8280 c3         1 F06       0.122900
      9 S9          -1.6230     0.2800    -0.6370 ss         1 F06      -0.315200
     10 C10         -3.2080     0.0600     0.1190 c2         1 F06       0.656100
     11 N11         -4.2000     0.0130    -0.7830 nv         1 F06      -1.058200
     12 N12         -3.4150    -0.0390     1.3550 n2         1 F06      -0.850100
     13 H3           3.6880    -1.2850    -0.7080 ha         1 F06       0.130000
     14 H4           4.6680     1.0070    -0.7200 ha         1 F06       0.119000
     15 H5           3.2760     2.9560    -0.0260 ha         1 F06       0.119000
     16 H6           0.9190     2.6200     0.6770 ha         1 F06       0.119000
     17 H8          -0.6170    -0.6480     1.3870 h1         1 F06       0.091200
     18 H8A         -0.7880     1.1090     1.4950 h1         1 F06       0.091200
     19 HN11        -3.8880     0.2570    -1.7160 hn         1 F06       0.464000
     20 HN1A        -5.0520     0.4810    -0.4960 hn         1 F06       0.464000
     21 HN12        -4.4200    -0.1940     1.4930 hn         1 F06       0.380400
@<TRIPOS>BOND
     1     1     2 1   
     2     1     3 ar  
     3     1     7 ar  
     4     3     4 ar  
     5     3    13 1   
     6     4     5 ar  
     7     4    14 1   
     8     5     6 ar  
     9     5    15 1   
    10     6     7 ar  
    11     6    16 1   
    12     7     8 1   
    13     8     9 1   
    14     8    17 1   
    15     8    18 1   
    16     9    10 1   
    17    10    11 1   
    18    10    12 2   
    19    11    19 1   
    20    11    20 1   
    21    12    21 1   
@<TRIPOS>SUBSTRUCTURE
     1 F06         1 TEMP              0 ****  ****    0 ROOT
