@<TRIPOS>MOLECULE
F06
   21    21     1     0     0
SMALL
abcg2


@<TRIPOS>ATOM
      1 C1           1.6660    -0.5770     0.0150 ca         1 F06       0.136000
      2 CL2          0.9430    -2.1520     0.0170 cl         1 F06      -0.191000
      3 C3           2.9830    -0.4590    -0.4030 ca         1 F06      -0.106000
      4 C4           3.5830     0.7920    -0.4220 ca         1 F06      -0.095000
      5 C5           2.8660     1.9110    -0.0240 ca         1 F06      -0.111000
      6 C6           1.5520     1.7730     0.3960 ca         1 F06      -0.089000
      7 C7           0.9250     0.5290     0.4300 ca         1 F06      -0.077300
      8 C8          -0.5000     0.4210     0.8750 c3         1 F06       0.122900
      9 S9          -1.5400     0.3960    -0.6160 ss         1 F06      -0.315200
     10 C10         -3.1390     0.0500     0.0760 c2         1 F06       0.656100
     11 N11         -4.1030     0.0160    -0.8890 nv         1 F06      -1.058200
     12 N12         -3.2580    -0.1830     1.3180 n2         1 F06      -0.850100
     13 H3           3.5350    -1.3360    -0.7100 ha         1 F06       0.130000
     14 H4           4.6100     0.8860    -0.7490 ha         1 F06       0.119000
     15 H5           3.3270     2.8890    -0.0400 ha         1 F06       0.119000
     16 H6           0.9930     2.6460     0.7080 ha         1 F06       0.119000
     17 H8          -0.6890    -0.4850     1.4480 h1         1 F06       0.091200
     18 H8A         -0.7760     1.2760     1.4890 h1         1 F06       0.091200
     19 HN11        -3.9540     0.5390    -1.7380 hn         1 F06       0.464000
     20 HN1A        -5.0600     0.0340    -0.5720 hn         1 F06       0.464000
     21 HN12        -4.2270    -0.3600     1.5710 hn         1 F06       0.380400
@<TRIPOS>BOND
     1     1     2 1   
     2     1     3 ar  
     3     1     7 ar  
     4     3     4 ar  
     5     3    13 1   
     6     4     5 ar  
     7     4    14 1   
     8     5     6 ar  
     9     5    15 1   
    10     6     7 ar  
    11     6    16 1   
    12     7     8 1   
    13     8     9 1   
    14     8    17 1   
    15     8    18 1   
    16     9    10 1   
    17    10    11 1   
    18    10    12 2   
    19    11    19 1   
    20    11    20 1   
    21    12    21 1   
@<TRIPOS>SUBSTRUCTURE
     1 F06         1 TEMP              0 ****  ****    0 ROOT
