@<TRIPOS>MOLECULE
F08
   33    35     1     0     0
SMALL
No Charge or Current Charge


@<TRIPOS>ATOM
      1 CAA          7.0090     0.5260     0.3820 c3         1 F08       0.153900
      2 OAB          5.5720     0.6070     0.3300 os         1 F08      -0.439100
      3 CAC          4.8770    -0.4790    -0.1430 c          1 F08       0.604700
      4 OAD          5.4180    -1.5110    -0.5220 o          1 F08      -0.484000
      5 CAE          3.3770    -0.2860    -0.1540 ca         1 F08      -0.122600
      6 CAJ          2.5370    -1.3220    -0.6160 ca         1 F08      -0.063500
      7 CAI          1.1410    -1.1610    -0.6330 ca         1 F08      -0.092000
      8 CAF          2.7830     0.9160     0.2930 ca         1 F08      -0.063500
      9 CAG          1.3860     1.0750     0.2740 ca         1 F08      -0.092000
     10 CAH          0.5490     0.0410    -0.1950 ca         1 F08      -0.041800
     11 CAK         -0.9110     0.1930    -0.2140 cc         1 F08       0.203900
     12 OAU         -1.6870    -0.9470    -0.0740 os         1 F08      -0.220200
     13 CAT         -3.0530    -0.7610     0.0910 ca         1 F08       0.154100
     14 CAS         -3.8060    -1.8900     0.4590 ca         1 F08      -0.141000
     15 CAR         -5.1990    -1.8050     0.6180 ca         1 F08      -0.056000
     16 CAQ         -5.8520    -0.5820     0.4000 ca         1 F08      -0.146000
     17 CAP         -5.1130     0.5510     0.0220 ca         1 F08      -0.024000
     18 CAO         -3.7130     0.4600    -0.1340 ca         1 F08      -0.227600
     19 CAM         -2.9100     1.6340    -0.5300 c          1 F08       0.595900
     20 OAN         -3.4030     2.7140    -0.8220 o          1 F08      -0.539100
     21 CAL         -1.4800     1.4120    -0.5190 cd         1 F08      -0.381200
     22 H1           7.4290     0.3620    -0.6190 h1         1 F08       0.051033
     23 H2           7.4300     1.4590     0.7770 h1         1 F08       0.051033
     24 H3           7.3320    -0.2960     1.0340 h1         1 F08       0.051033
     25 H4           2.9650    -2.2610    -0.9640 ha         1 F08       0.138500
     26 H5           0.5190    -1.9760    -0.9970 ha         1 F08       0.130500
     27 H6           3.3960     1.7350     0.6630 ha         1 F08       0.138500
     28 H7           0.9580     2.0050     0.6400 ha         1 F08       0.130500
     29 H8          -3.3030    -2.8400     0.6210 ha         1 F08       0.133000
     30 H9          -5.7710    -2.6850     0.9060 ha         1 F08       0.121000
     31 H10         -6.9310    -0.5120     0.5200 ha         1 F08       0.123000
     32 H11         -5.6290     1.4950    -0.1480 ha         1 F08       0.139000
     33 H12         -0.8890     2.2870    -0.7550 ha         1 F08       0.213000
@<TRIPOS>BOND
     1     1     2 1   
     2     1    22 1   
     3     1    23 1   
     4     1    24 1   
     5     2     3 1   
     6     3     4 2   
     7     3     5 1   
     8     5     6 ar  
     9     5     8 ar  
    10     6     7 ar  
    11     6    25 1   
    12     7    10 ar  
    13     7    26 1   
    14     8     9 ar  
    15     8    27 1   
    16     9    10 ar  
    17     9    28 1   
    18    10    11 1   
    19    11    12 1   
    20    11    21 2   
    21    12    13 1   
    22    13    14 ar  
    23    13    18 ar  
    24    14    15 ar  
    25    14    29 1   
    26    15    16 ar  
    27    15    30 1   
    28    16    17 ar  
    29    16    31 1   
    30    17    18 ar  
    31    17    32 1   
    32    18    19 1   
    33    19    20 2   
    34    19    21 1   
    35    21    33 1   
@<TRIPOS>SUBSTRUCTURE
     1 F08         1 TEMP              0 ****  ****    0 ROOT
