@<TRIPOS>MOLECULE
F08
   33    35     1     0     0
SMALL
bcc


@<TRIPOS>ATOM
      1 CAA          6.9190     0.3640    -0.0190 c3         1 F08       0.130700
      2 OAB          5.5000     0.5230    -0.0110 os         1 F08      -0.415900
      3 CAC          4.7590    -0.5700    -0.0280 c          1 F08       0.653700
      4 OAD          5.2120    -1.6890    -0.0470 o          1 F08      -0.533000
      5 CAE          3.3020    -0.2740    -0.0200 ca         1 F08      -0.122600
      6 CAJ          2.4100    -1.3410    -0.0180 ca         1 F08      -0.081500
      7 CAI          1.0450    -1.1190    -0.0100 ca         1 F08      -0.110000
      8 CAF          2.8030     1.0270    -0.0150 ca         1 F08      -0.081500
      9 CAG          1.4390     1.2500    -0.0080 ca         1 F08      -0.110000
     10 CAH          0.5390     0.1830    -0.0050 ca         1 F08      -0.041800
     11 CAK         -0.9110     0.4240     0.0020 cc         1 F08       0.203900
     12 OAU         -1.6170    -0.7120     0.0080 os         1 F08      -0.220200
     13 CAT         -2.9690    -0.6940     0.0150 ca         1 F08       0.154100
     14 CAS         -3.6120    -1.9280     0.0220 ca         1 F08      -0.159000
     15 CAR         -4.9920    -1.9540     0.0300 ca         1 F08      -0.074000
     16 CAQ         -5.7290    -0.7660     0.0310 ca         1 F08      -0.164000
     17 CAP         -5.0780     0.4480     0.0240 ca         1 F08      -0.042000
     18 CAO         -3.6800     0.5020     0.0160 ca         1 F08      -0.227600
     19 CAM         -2.9510     1.7750     0.0100 c          1 F08       0.595900
     20 OAN         -3.5160     2.8610     0.0110 o          1 F08      -0.539100
     21 CAL         -1.5110     1.6350     0.0020 cd         1 F08      -0.331200
     22 H1           7.2540    -0.1550    -0.9170 h1         1 F08       0.051033
     23 H2           7.3300     1.3690    -0.0070 h1         1 F08       0.051033
     24 H3           7.2610    -0.1790     0.8610 h1         1 F08       0.051033
     25 H4           2.7800    -2.3570    -0.0210 ha         1 F08       0.156500
     26 H5           0.3840    -1.9730    -0.0070 ha         1 F08       0.148500
     27 H6           3.4680     1.8790    -0.0180 ha         1 F08       0.156500
     28 H7           1.0890     2.2730    -0.0040 ha         1 F08       0.148500
     29 H8          -3.0330    -2.8420     0.0210 ha         1 F08       0.151000
     30 H9          -5.5040    -2.9060     0.0360 ha         1 F08       0.139000
     31 H10         -6.8100    -0.8030     0.0380 ha         1 F08       0.141000
     32 H11         -5.6400     1.3720     0.0250 ha         1 F08       0.157000
     33 H12         -0.9150     2.5360    -0.0040 ha         1 F08       0.163000
@<TRIPOS>BOND
     1     1     2 1   
     2     1    22 1   
     3     1    23 1   
     4     1    24 1   
     5     2     3 1   
     6     3     4 2   
     7     3     5 1   
     8     5     6 ar  
     9     5     8 ar  
    10     6     7 ar  
    11     6    25 1   
    12     7    10 ar  
    13     7    26 1   
    14     8     9 ar  
    15     8    27 1   
    16     9    10 ar  
    17     9    28 1   
    18    10    11 1   
    19    11    12 1   
    20    11    21 2   
    21    12    13 1   
    22    13    14 ar  
    23    13    18 ar  
    24    14    15 ar  
    25    14    29 1   
    26    15    16 ar  
    27    15    30 1   
    28    16    17 ar  
    29    16    31 1   
    30    17    18 ar  
    31    17    32 1   
    32    18    19 1   
    33    19    20 2   
    34    19    21 1   
    35    21    33 1   
@<TRIPOS>SUBSTRUCTURE
     1 F08         1 TEMP              0 ****  ****    0 ROOT
