@<TRIPOS>MOLECULE
F09
   30    29     1     0     0
SMALL
No Charge or Current Charge


@<TRIPOS>ATOM
      1 C1          -0.3010    -0.0120     5.8510 c3         1 F09      -0.088100
      2 C2           0.5230    -0.0080     4.5490 c3         1 F09      -0.075400
      3 C3          -0.3540    -0.0080     3.2780 c3         1 F09      -0.075400
      4 C4           0.4720    -0.0030     1.9730 c3         1 F09      -0.074400
      5 C5          -0.4050    -0.0030     0.7020 c3         1 F09      -0.074400
      6 C6           0.4210     0.0010    -0.6020 c3         1 F09      -0.073400
      7 C7          -0.4560     0.0010    -1.8740 c3         1 F09      -0.074400
      8 C8           0.3690     0.0050    -3.1790 c3         1 F09      -0.081400
      9 C9          -0.5090     0.0050    -4.4460 c3         1 F09       0.163600
     10 OXT          0.3220     0.0090    -5.6110 oh         1 F09      -0.663000
     11 H11          0.3630    -0.0120     6.7240 hc         1 F09       0.031367
     12 H12         -0.9420     0.8760     5.9080 hc         1 F09       0.031367
     13 H13         -0.9370    -0.9040     5.9050 hc         1 F09       0.031367
     14 H21          1.1730     0.8760     4.5430 hc         1 F09       0.036700
     15 H22          1.1780    -0.8880     4.5390 hc         1 F09       0.036700
     16 H31         -1.0040    -0.8920     3.2900 hc         1 F09       0.036700
     17 H32         -1.0090     0.8720     3.2930 hc         1 F09       0.036700
     18 H41          1.1230     0.8810     1.9620 hc         1 F09       0.037700
     19 H42          1.1280    -0.8830     1.9590 hc         1 F09       0.037700
     20 H51         -1.0550    -0.8870     0.7140 hc         1 F09       0.036700
     21 H52         -1.0600     0.8770     0.7170 hc         1 F09       0.036700
     22 H61          1.0710     0.8850    -0.6140 hc         1 F09       0.039700
     23 H62          1.0770    -0.8790    -0.6170 hc         1 F09       0.039700
     24 H71         -1.1060    -0.8830    -1.8620 hc         1 F09       0.036700
     25 H72         -1.1120     0.8810    -1.8590 hc         1 F09       0.036700
     26 H81          1.0180     0.8900    -3.1930 hc         1 F09       0.052200
     27 H82          1.0240    -0.8750    -3.1960 hc         1 F09       0.052200
     28 H91         -1.1520    -0.8850    -4.4420 h1         1 F09       0.014700
     29 H92         -1.1580     0.8910    -4.4390 h1         1 F09       0.014700
     30 HXT         -0.2790     0.0090    -6.3900 ho         1 F09       0.442000
@<TRIPOS>BOND
     1     1     2 1   
     2     1    11 1   
     3     1    12 1   
     4     1    13 1   
     5     2     3 1   
     6     2    14 1   
     7     2    15 1   
     8     3     4 1   
     9     3    16 1   
    10     3    17 1   
    11     4     5 1   
    12     4    18 1   
    13     4    19 1   
    14     5     6 1   
    15     5    20 1   
    16     5    21 1   
    17     6     7 1   
    18     6    22 1   
    19     6    23 1   
    20     7     8 1   
    21     7    24 1   
    22     7    25 1   
    23     8     9 1   
    24     8    26 1   
    25     8    27 1   
    26     9    10 1   
    27     9    28 1   
    28     9    29 1   
    29    10    30 1   
@<TRIPOS>SUBSTRUCTURE
     1 F09         1 TEMP              0 ****  ****    0 ROOT
