@<TRIPOS>MOLECULE
F09
   30    29     1     0     0
SMALL
bcc


@<TRIPOS>ATOM
      1 C1          -0.3150    -0.0200     5.7730 c3         1 F09      -0.088100
      2 C2           0.5170    -0.0050     4.4980 c3         1 F09      -0.075400
      3 C3          -0.3390    -0.0100     3.2370 c3         1 F09      -0.075400
      4 C4           0.4780     0.0020     1.9500 c3         1 F09      -0.074400
      5 C5          -0.3840     0.0020     0.6940 c3         1 F09      -0.074400
      6 C6           0.4280     0.0060    -0.5960 c3         1 F09      -0.073400
      7 C7          -0.4400     0.0050    -1.8470 c3         1 F09      -0.074400
      8 C8           0.3710     0.0020    -3.1370 c3         1 F09      -0.081400
      9 C9          -0.5170     0.0060    -4.3660 c3         1 F09       0.140400
     10 OXT          0.2920    -0.0140    -5.5240 oh         1 F09      -0.600800
     11 H11          0.3120    -0.0160     6.6650 hc         1 F09       0.031367
     12 H12         -0.9690     0.8530     5.8250 hc         1 F09       0.031367
     13 H13         -0.9480    -0.9080     5.8190 hc         1 F09       0.031367
     14 H21          1.1660     0.8760     4.4910 hc         1 F09       0.036700
     15 H22          1.1850    -0.8720     4.4840 hc         1 F09       0.036700
     16 H31         -0.9900    -0.8910     3.2450 hc         1 F09       0.036700
     17 H32         -1.0070     0.8590     3.2510 hc         1 F09       0.036700
     18 H41          1.1310     0.8820     1.9420 hc         1 F09       0.037700
     19 H42          1.1430    -0.8690     1.9340 hc         1 F09       0.037700
     20 H51         -1.0410    -0.8750     0.7050 hc         1 F09       0.036700
     21 H52         -1.0460     0.8750     0.7080 hc         1 F09       0.036700
     22 H61          1.0850     0.8830    -0.6090 hc         1 F09       0.039700
     23 H62          1.0890    -0.8680    -0.6120 hc         1 F09       0.039700
     24 H71         -1.1000    -0.8690    -1.8280 hc         1 F09       0.036700
     25 H72         -1.0970     0.8820    -1.8310 hc         1 F09       0.036700
     26 H81          1.0280     0.8770    -3.1600 hc         1 F09       0.052200
     27 H82          1.0190    -0.8810    -3.1600 hc         1 F09       0.052200
     28 H91         -1.1850    -0.8650    -4.3310 h1         1 F09       0.014700
     29 H92         -1.1600     0.8960    -4.3430 h1         1 F09       0.014700
     30 HXT         -0.2840    -0.0070    -6.2930 ho         1 F09       0.403000
@<TRIPOS>BOND
     1     1     2 1   
     2     1    11 1   
     3     1    12 1   
     4     1    13 1   
     5     2     3 1   
     6     2    14 1   
     7     2    15 1   
     8     3     4 1   
     9     3    16 1   
    10     3    17 1   
    11     4     5 1   
    12     4    18 1   
    13     4    19 1   
    14     5     6 1   
    15     5    20 1   
    16     5    21 1   
    17     6     7 1   
    18     6    22 1   
    19     6    23 1   
    20     7     8 1   
    21     7    24 1   
    22     7    25 1   
    23     8     9 1   
    24     8    26 1   
    25     8    27 1   
    26     9    10 1   
    27     9    28 1   
    28     9    29 1   
    29    10    30 1   
@<TRIPOS>SUBSTRUCTURE
     1 F09         1 TEMP              0 ****  ****    0 ROOT
