@<TRIPOS>MOLECULE
F0A
   65    69     1     0     0
SMALL
bcc


@<TRIPOS>ATOM
      1 O29          4.6490     3.0130    -1.7930 o          1 F0A      -0.605100
      2 C28          5.5880     2.6830    -1.0810 c          1 F0A       0.683700
      3 N30          6.7060     3.4160    -0.9750 nt         1 F0A      -0.672000
      4 C24          5.5410     1.4210    -0.2770 ca         1 F0A      -0.150600
      5 C25          6.3320     1.2130     0.8490 ca         1 F0A      -0.108000
      6 C26          6.2310     0.0210     1.5530 ca         1 F0A      -0.137000
      7 C27          5.3480    -0.9640     1.1380 ca         1 F0A      -0.108000
      8 C22          4.5400    -0.7720     0.0180 ca         1 F0A      -0.086300
      9 C23          4.6450     0.4300    -0.6720 ca         1 F0A      -0.074000
     10 C21          3.5620    -1.8290    -0.4140 c3         1 F0A      -0.021100
     11 C17          2.3560    -1.8990     0.5280 c5         1 F0A      -0.093700
     12 C18          1.2950    -2.9900     0.1600 c5         1 F0A       0.153100
     13 O19          1.7100    -3.9490    -0.7800 oh         1 F0A      -0.586800
     14 C14          0.0680    -2.2110    -0.3270 c5         1 F0A      -0.040000
     15 C20          0.2480    -1.7910    -1.7900 c3         1 F0A      -0.073100
     16 C15          0.1100    -1.0270     0.6500 c5         1 F0A      -0.063700
     17 C16          1.5640    -0.5750     0.6050 c5         1 F0A      -0.066400
     18 C13         -1.2690    -2.9280    -0.1570 c6         1 F0A      -0.061400
     19 C12         -2.4500    -1.9680    -0.3350 c6         1 F0A      -0.068400
     20 C10         -2.3490    -0.7330     0.5720 c6         1 F0A      -0.007400
     21 C11         -3.5070     0.2370     0.4200 ca         1 F0A      -0.067300
     22 C6          -3.3270     1.6100     0.5820 ca         1 F0A      -0.065300
     23 C7          -1.9770     2.2160     0.8740 c6         1 F0A      -0.028100
     24 C8          -0.9490     1.1890     1.3210 c6         1 F0A      -0.070400
     25 C9          -0.9980    -0.0210     0.4000 c6         1 F0A      -0.046700
     26 C5          -4.4240     2.4660     0.4590 ca         1 F0A      -0.145000
     27 C3          -5.6910     1.9940     0.1870 ca         1 F0A       0.121100
     28 O4          -6.7190     2.8660     0.0750 oh         1 F0A      -0.497100
     29 C2          -5.8800     0.6130     0.0360 ca         1 F0A       0.043100
     30 C1          -4.7980    -0.2390     0.1560 ca         1 F0A      -0.169000
     31 O31         -7.1550     0.2350    -0.2220 os         1 F0A      -0.344900
     32 C32         -7.4180    -1.1310    -0.4630 c3         1 F0A       0.134700
     33 H1           6.7940     4.2690    -1.5030 hn         1 F0A       0.314000
     34 H2           7.5240     3.0960    -0.4870 hn         1 F0A       0.314000
     35 H3           7.0170     1.9730     1.2040 ha         1 F0A       0.127000
     36 H4           6.8450    -0.1370     2.4300 ha         1 F0A       0.133000
     37 H5           5.2890    -1.8940     1.6910 ha         1 F0A       0.130000
     38 H6           4.0260     0.5910    -1.5450 ha         1 F0A       0.154000
     39 H7           3.2340    -1.6180    -1.4350 hc         1 F0A       0.054700
     40 H8           4.0720    -2.7950    -0.4410 hc         1 F0A       0.054700
     41 H9           2.7420    -2.1310     1.5250 hc         1 F0A       0.042700
     42 H10          1.0090    -3.4930     1.0950 h1         1 F0A       0.025700
     43 H11          2.3760    -4.5080    -0.3700 ho         1 F0A       0.401000
     44 H12         -0.5200    -1.0880    -2.1120 hc         1 F0A       0.038033
     45 H13          1.2100    -1.3190    -1.9840 hc         1 F0A       0.038033
     46 H14          0.1790    -2.6620    -2.4430 hc         1 F0A       0.038033
     47 H15         -0.0660    -1.4460     1.6540 hc         1 F0A       0.041700
     48 H16          1.8510     0.0240     1.4700 hc         1 F0A       0.051700
     49 H17          1.7390     0.0500    -0.2770 hc         1 F0A       0.051700
     50 H18         -1.3610    -3.7570    -0.8650 hc         1 F0A       0.042700
     51 H19         -1.3170    -3.3650     0.8470 hc         1 F0A       0.042700
     52 H20         -2.5300    -1.6470    -1.3780 hc         1 F0A       0.041200
     53 H21         -3.3660    -2.5220    -0.1230 hc         1 F0A       0.041200
     54 H22         -2.3680    -1.1030     1.6090 hc         1 F0A       0.051700
     55 H23         -1.6090     2.7130    -0.0310 hc         1 F0A       0.050700
     56 H24         -2.0860     3.0040     1.6230 hc         1 F0A       0.050700
     57 H25          0.0450     1.6430     1.3170 hc         1 F0A       0.044700
     58 H26         -1.1470     0.8720     2.3500 hc         1 F0A       0.044700
     59 H27         -0.9210     0.3480    -0.6320 hc         1 F0A       0.060700
     60 H28         -4.2830     3.5350     0.5820 ha         1 F0A       0.146000
     61 H29         -7.5370     2.3870    -0.1030 ho         1 F0A       0.440000
     62 H30         -4.9520    -1.3040     0.0450 ha         1 F0A       0.132000
     63 H31         -6.8490    -1.5070    -1.3170 h1         1 F0A       0.040367
     64 H32         -7.1930    -1.7500     0.4100 h1         1 F0A       0.040367
     65 H33         -8.4790    -1.2100    -0.6850 h1         1 F0A       0.040367
@<TRIPOS>BOND
     1     1     2 2   
     2     2     3 1   
     3     2     4 1   
     4     3    33 1   
     5     3    34 1   
     6     4     5 ar  
     7     4     9 ar  
     8     5     6 ar  
     9     5    35 1   
    10     6     7 ar  
    11     6    36 1   
    12     7     8 ar  
    13     7    37 1   
    14     8     9 ar  
    15     8    10 1   
    16     9    38 1   
    17    10    11 1   
    18    10    39 1   
    19    10    40 1   
    20    11    12 1   
    21    11    17 1   
    22    11    41 1   
    23    12    13 1   
    24    12    14 1   
    25    12    42 1   
    26    13    43 1   
    27    14    15 1   
    28    14    16 1   
    29    14    18 1   
    30    15    44 1   
    31    15    45 1   
    32    15    46 1   
    33    16    17 1   
    34    16    25 1   
    35    16    47 1   
    36    17    48 1   
    37    17    49 1   
    38    18    19 1   
    39    18    50 1   
    40    18    51 1   
    41    19    20 1   
    42    19    52 1   
    43    19    53 1   
    44    20    21 1   
    45    20    25 1   
    46    20    54 1   
    47    21    22 ar  
    48    21    30 ar  
    49    22    23 1   
    50    22    26 ar  
    51    23    24 1   
    52    23    55 1   
    53    23    56 1   
    54    24    25 1   
    55    24    57 1   
    56    24    58 1   
    57    25    59 1   
    58    26    27 ar  
    59    26    60 1   
    60    27    28 1   
    61    27    29 ar  
    62    28    61 1   
    63    29    30 ar  
    64    29    31 1   
    65    30    62 1   
    66    31    32 1   
    67    32    63 1   
    68    32    64 1   
    69    32    65 1   
@<TRIPOS>SUBSTRUCTURE
     1 F0A         1 TEMP              0 ****  ****    0 ROOT
