@<TRIPOS>MOLECULE
F0A
   65    69     1     0     0
SMALL
No Charge or Current Charge


@<TRIPOS>ATOM
      1 O29          5.0780     2.7100    -2.3630 o          1 F0A      -0.605100
      2 C28          5.7300     2.5990    -1.3380 c          1 F0A       0.616700
      3 N30          6.5750     3.5940    -0.9910 nt         1 F0A      -0.605000
      4 C24          5.6350     1.3890    -0.4330 ca         1 F0A      -0.150600
      5 C25          6.4020     1.2760     0.7520 ca         1 F0A      -0.090000
      6 C26          6.2870     0.1390     1.5690 ca         1 F0A      -0.119000
      7 C27          5.4080    -0.8980     1.2200 ca         1 F0A      -0.090000
      8 C22          4.6370    -0.8050     0.0480 ca         1 F0A      -0.086300
      9 C23          4.7550     0.3350    -0.7710 ca         1 F0A      -0.056000
     10 C21          3.6760    -1.9290    -0.3250 c3         1 F0A      -0.021100
     11 C17          2.3920    -1.9600     0.5520 c5         1 F0A      -0.093700
     12 C18          1.3040    -3.0580     0.2140 c5         1 F0A       0.176300
     13 O19          1.7690    -4.0850    -0.6650 oh         1 F0A      -0.649000
     14 C14          0.0970    -2.2410    -0.3690 c5         1 F0A      -0.040000
     15 C20          0.3020    -1.8280    -1.8720 c3         1 F0A      -0.073100
     16 C15          0.1260    -1.0740     0.6660 c5         1 F0A      -0.063700
     17 C16          1.5990    -0.6020     0.5580 c5         1 F0A      -0.066400
     18 C13         -1.2770    -2.9620    -0.2500 c6         1 F0A      -0.061400
     19 C12         -2.4740    -1.9780    -0.4250 c6         1 F0A      -0.068400
     20 C10         -2.4010    -0.7540     0.5530 c6         1 F0A      -0.007400
     21 C11         -3.5770     0.2520     0.4300 ca         1 F0A      -0.067300
     22 C6          -3.3730     1.6350     0.6910 ca         1 F0A      -0.065300
     23 C7          -1.9980     2.2040     1.0620 c6         1 F0A      -0.028100
     24 C8          -0.9540     1.1350     1.4410 c6         1 F0A      -0.070400
     25 C9          -1.0120    -0.0390     0.4400 c6         1 F0A      -0.046700
     26 C5          -4.4500     2.5360     0.5940 ca         1 F0A      -0.127000
     27 C3          -5.7310     2.0820     0.2610 ca         1 F0A       0.121100
     28 O4          -6.7680     2.9660     0.1730 oh         1 F0A      -0.536100
     29 C2          -5.9600     0.7150     0.0250 ca         1 F0A       0.043100
     30 C1          -4.8840    -0.1950     0.1170 ca         1 F0A      -0.151000
     31 O31         -7.2500     0.3150    -0.2880 os         1 F0A      -0.368100
     32 C32         -7.5900    -1.0590    -0.5530 c3         1 F0A       0.157900
     33 H1           6.6480     4.4050    -1.5860 hn         1 F0A       0.314000
     34 H2           7.1230     3.5230    -0.1490 hn         1 F0A       0.314000
     35 H3           7.0920     2.0600     1.0530 ha         1 F0A       0.109000
     36 H4           6.8800     0.0620     2.4770 ha         1 F0A       0.115000
     37 H5           5.3260    -1.7720     1.8610 ha         1 F0A       0.112000
     38 H6           4.1530     0.4030    -1.6750 ha         1 F0A       0.136000
     39 H7           3.4050    -1.8480    -1.3840 hc         1 F0A       0.054700
     40 H8           4.2030    -2.8860    -0.2340 hc         1 F0A       0.054700
     41 H9           2.7520    -2.1570     1.5690 hc         1 F0A       0.042700
     42 H10          0.9870    -3.5270     1.1570 h1         1 F0A       0.025700
     43 H11          2.4410    -4.5970    -0.1670 ho         1 F0A       0.440000
     44 H12         -0.4490    -1.1110    -2.2190 hc         1 F0A       0.038033
     45 H13          1.2790    -1.3760    -2.0660 hc         1 F0A       0.038033
     46 H14          0.2310    -2.7030    -2.5290 hc         1 F0A       0.038033
     47 H15         -0.0510    -1.4550     1.6810 hc         1 F0A       0.041700
     48 H16          1.8940     0.0300     1.4030 hc         1 F0A       0.051700
     49 H17          1.7720    -0.0070    -0.3460 hc         1 F0A       0.051700
     50 H18         -1.3470    -3.7760    -0.9850 hc         1 F0A       0.042700
     51 H19         -1.3570    -3.4400     0.7360 hc         1 F0A       0.042700
     52 H20         -2.5380    -1.6260    -1.4630 hc         1 F0A       0.041200
     53 H21         -3.3890    -2.5560    -0.2460 hc         1 F0A       0.041200
     54 H22         -2.4690    -1.1680     1.5690 hc         1 F0A       0.051700
     55 H23         -1.6200     2.7830     0.2080 hc         1 F0A       0.050700
     56 H24         -2.0990     2.9180     1.8910 hc         1 F0A       0.050700
     57 H25          0.0430     1.5940     1.4510 hc         1 F0A       0.044700
     58 H26         -1.1440     0.7700     2.4600 hc         1 F0A       0.044700
     59 H27         -0.9100     0.3810    -0.5700 hc         1 F0A       0.060700
     60 H28         -4.2920     3.5950     0.7810 ha         1 F0A       0.128000
     61 H29         -7.5620     2.4360    -0.0630 ho         1 F0A       0.479000
     62 H30         -5.0650    -1.2500    -0.0450 ha         1 F0A       0.114000
     63 H31         -7.0250    -1.4420    -1.4120 h1         1 F0A       0.040367
     64 H32         -7.3760    -1.6890     0.3200 h1         1 F0A       0.040367
     65 H33         -8.6590    -1.1490    -0.7820 h1         1 F0A       0.040367
@<TRIPOS>BOND
     1     1     2 2   
     2     2     3 1   
     3     2     4 1   
     4     3    33 1   
     5     3    34 1   
     6     4     5 ar  
     7     4     9 ar  
     8     5     6 ar  
     9     5    35 1   
    10     6     7 ar  
    11     6    36 1   
    12     7     8 ar  
    13     7    37 1   
    14     8     9 ar  
    15     8    10 1   
    16     9    38 1   
    17    10    11 1   
    18    10    39 1   
    19    10    40 1   
    20    11    12 1   
    21    11    17 1   
    22    11    41 1   
    23    12    13 1   
    24    12    14 1   
    25    12    42 1   
    26    13    43 1   
    27    14    15 1   
    28    14    16 1   
    29    14    18 1   
    30    15    44 1   
    31    15    45 1   
    32    15    46 1   
    33    16    17 1   
    34    16    25 1   
    35    16    47 1   
    36    17    48 1   
    37    17    49 1   
    38    18    19 1   
    39    18    50 1   
    40    18    51 1   
    41    19    20 1   
    42    19    52 1   
    43    19    53 1   
    44    20    21 1   
    45    20    25 1   
    46    20    54 1   
    47    21    22 ar  
    48    21    30 ar  
    49    22    23 1   
    50    22    26 ar  
    51    23    24 1   
    52    23    55 1   
    53    23    56 1   
    54    24    25 1   
    55    24    57 1   
    56    24    58 1   
    57    25    59 1   
    58    26    27 ar  
    59    26    60 1   
    60    27    28 1   
    61    27    29 ar  
    62    28    61 1   
    63    29    30 ar  
    64    29    31 1   
    65    30    62 1   
    66    31    32 1   
    67    32    63 1   
    68    32    64 1   
    69    32    65 1   
@<TRIPOS>SUBSTRUCTURE
     1 F0A         1 TEMP              0 ****  ****    0 ROOT
