@<TRIPOS>MOLECULE
F0B
   67    73     1     0     0
SMALL
No Charge or Current Charge


@<TRIPOS>ATOM
      1 C4           3.8990     3.4030    -1.3800 ca         1 F0B      -0.226000
      2 C5           2.7120     2.6690    -1.6020 ca         1 F0B       0.159100
      3 C6           2.3560     1.6070    -0.7480 ca         1 F0B      -0.125000
      4 C8           5.0620     1.4570     1.7230 c          1 F0B       0.584600
      5 C10          3.2120     1.2980     0.3180 ca         1 F0B      -0.033300
      6 C15          3.2160    -1.1030     0.7060 cc         1 F0B      -0.133400
      7 C17          4.2480    -1.6650    -0.1360 ca         1 F0B      -0.082800
      8 C20          5.8530    -3.2330    -1.7950 ca         1 F0B      -0.087000
      9 C21          4.6140    -3.7310    -1.3440 ca         1 F0B      -0.133000
     10 C24         -3.5590     2.1810    -0.6780 ca         1 F0B      -0.092800
     11 C26         -1.6630     1.6060     0.6880 ca         1 F0B      -0.115000
     12 C28         -3.2820    -0.1110     0.0290 ca         1 F0B      -0.113000
     13 C11          3.0830     0.2490     1.3960 c5         1 F0B       0.236200
     14 C14          2.2110    -2.0710     0.7720 cd         1 F0B      -0.059300
     15 C16          3.8340    -2.9140    -0.5120 ca         1 F0B      -0.046200
     16 C18          5.4750    -1.1400    -0.5770 ca         1 F0B      -0.050000
     17 C19          6.2810    -1.9410    -1.4140 ca         1 F0B      -0.141000
     18 C23         -3.9930     0.8840    -0.6630 ca         1 F0B      -0.048200
     19 C25         -2.3940     2.5860    -0.0150 ca         1 F0B      -0.062000
     20 C27         -2.1010     0.2570     0.7150 ca         1 F0B      -0.080300
     21 C29         -1.3010    -0.7890     1.4820 c3         1 F0B       0.213100
     22 C3           4.7450     3.0830    -0.2970 ca         1 F0B      -0.001000
     23 C30         -4.4930     2.9380    -1.4570 cc         1 F0B      -0.237200
     24 C31         -5.4760     2.0550    -1.8900 cd         1 F0B      -0.162100
     25 C34         -6.5470    -1.0530    -0.3110 ca         1 F0B      -0.115300
     26 C35         -7.1190    -0.1980     0.6550 ca         1 F0B      -0.096000
     27 C36         -7.6990    -0.7290     1.8200 ca         1 F0B      -0.109000
     28 C37         -7.7140    -2.1180     2.0290 ca         1 F0B      -0.103000
     29 C38         -7.1510    -2.9760     1.0700 ca         1 F0B      -0.109000
     30 C39         -6.5710    -2.4460    -0.0960 ca         1 F0B      -0.096000
     31 C9           4.3680     2.0210     0.5360 ca         1 F0B      -0.210600
     32 N13          2.5950    -3.2070     0.0220 na         1 F0B      -0.220700
     33 N22          0.0030    -1.0060     0.8370 n7         1 F0B      -0.873400
     34 N32         -5.1680     0.7660    -1.3960 na         1 F0B      -0.091700
     35 N7           4.3190     0.3900     2.1790 ns         1 F0B      -0.516900
     36 O1           1.9030     2.9920    -2.6490 oh         1 F0B      -0.527100
     37 O2           6.1110     1.8450     2.2100 o          1 F0B      -0.558000
     38 H1           4.1700     4.2230    -2.0410 ha         1 F0B       0.114000
     39 H2           1.4420     1.0420    -0.9090 ha         1 F0B       0.149000
     40 H3           6.4800    -3.8430    -2.4420 ha         1 F0B       0.110000
     41 H4           4.2730    -4.7210    -1.6360 ha         1 F0B       0.112000
     42 H5          -0.7520     1.8890     1.2110 ha         1 F0B       0.121000
     43 H6          -3.6330    -1.1400     0.0400 ha         1 F0B       0.113000
     44 H7           2.1660     0.3590     1.9910 h1         1 F0B       0.079700
     45 H8           0.4120    -2.9840     1.4890 h1         1 F0B       0.039200
     46 H9           1.0650    -1.7130     2.5340 h1         1 F0B       0.039200
     47 H10          5.8060    -0.1480    -0.2920 ha         1 F0B       0.125000
     48 H11          7.2360    -1.5600    -1.7680 ha         1 F0B       0.113000
     49 H12         -2.0640     3.6220    -0.0410 ha         1 F0B       0.116000
     50 H13         -1.1640    -0.4420     2.5150 h1         1 F0B       0.035200
     51 H14         -1.8700    -1.7280     1.5230 h1         1 F0B       0.035200
     52 H15          5.6630     3.6390    -0.1160 ha         1 F0B       0.131000
     53 H16         -4.4570     4.0040    -1.6760 ha         1 F0B       0.205000
     54 H17         -6.3550     2.2420    -2.5000 h4         1 F0B       0.210000
     55 H18         -5.2220    -1.2340    -2.0080 h1         1 F0B       0.061700
     56 H19         -6.7010    -0.3210    -2.3260 h1         1 F0B       0.061700
     57 H20         -7.1170     0.8800     0.5050 ha         1 F0B       0.116500
     58 H21         -8.1360    -0.0630     2.5610 ha         1 F0B       0.115000
     59 H22         -8.1620    -2.5280     2.9310 ha         1 F0B       0.114000
     60 H23         -7.1630    -4.0520     1.2300 ha         1 F0B       0.115000
     61 H24         -6.1380    -3.1200    -0.8320 ha         1 F0B       0.116500
     62 H25          2.0590    -4.0580    -0.1120 hn         1 F0B       0.348000
     63 H26         -0.1670    -1.3190    -0.1240 hn         1 F0B       0.422000
     64 H28          4.6090    -0.1450     2.9860 hn         1 F0B       0.331500
     65 H29          2.3060     3.7470    -3.1270 ho         1 F0B       0.466000
     66 C12          0.8820    -1.9910     1.4870 c3         1 F0B       0.222000
     67 C33         -5.9110    -0.4930    -1.5840 c3         1 F0B       0.126900
@<TRIPOS>BOND
     1     1     2 ar  
     2     1    22 ar  
     3     1    38 1   
     4     2     3 ar  
     5     2    36 1   
     6     3     5 ar  
     7     3    39 1   
     8     4    31 1   
     9     4    35 1   
    10     4    37 2   
    11     5    13 1   
    12     5    31 ar  
    13     6     7 1   
    14     6    13 1   
    15     6    14 2   
    16     7    15 ar  
    17     7    16 ar  
    18     8     9 ar  
    19     8    17 ar  
    20     8    40 1   
    21     9    15 ar  
    22     9    41 1   
    23    10    18 ar  
    24    10    19 ar  
    25    10    23 1   
    26    11    19 ar  
    27    11    20 ar  
    28    11    42 1   
    29    12    18 ar  
    30    12    20 ar  
    31    12    43 1   
    32    13    35 1   
    33    13    44 1   
    34    14    32 1   
    35    14    66 1   
    36    15    32 1   
    37    16    17 ar  
    38    16    47 1   
    39    17    48 1   
    40    18    34 1   
    41    19    49 1   
    42    20    21 1   
    43    21    33 1   
    44    21    50 1   
    45    21    51 1   
    46    22    31 ar  
    47    22    52 1   
    48    23    24 2   
    49    23    53 1   
    50    24    34 1   
    51    24    54 1   
    52    25    26 ar  
    53    25    30 ar  
    54    25    67 1   
    55    26    27 ar  
    56    26    57 1   
    57    27    28 ar  
    58    27    58 1   
    59    28    29 ar  
    60    28    59 1   
    61    29    30 ar  
    62    29    60 1   
    63    30    61 1   
    64    32    62 1   
    65    33    63 1   
    66    33    66 1   
    67    34    67 1   
    68    35    64 1   
    69    36    65 1   
    70    45    66 1   
    71    46    66 1   
    72    55    67 1   
    73    56    67 1   
@<TRIPOS>SUBSTRUCTURE
     1 F0B         1 TEMP              0 ****  ****    0 ROOT
