@<TRIPOS>MOLECULE
F0B
   67    73     1     0     0
SMALL
bcc


@<TRIPOS>ATOM
      1 C4           3.0020     3.4900    -1.3420 ca         1 F0B      -0.244000
      2 C5           2.0410     2.4990    -1.5900 ca         1 F0B       0.159100
      3 C6           1.9770     1.3510    -0.8000 ca         1 F0B      -0.143000
      4 C8           4.6410     1.8010     1.6470 c          1 F0B       0.727100
      5 C10          2.8850     1.2300     0.2290 ca         1 F0B      -0.033300
      6 C15          3.2600    -1.2320     0.6470 cc         1 F0B      -0.133400
      7 C17          4.4080    -1.6810    -0.0830 ca         1 F0B      -0.082800
      8 C20          6.2570    -3.1860    -1.5310 ca         1 F0B      -0.105000
      9 C21          5.0740    -3.7930    -1.1550 ca         1 F0B      -0.151000
     10 C24         -3.2030     2.0880    -0.6010 ca         1 F0B      -0.092800
     11 C26         -1.3430     1.2070     0.6250 ca         1 F0B      -0.133000
     12 C28         -3.1120    -0.3030    -0.0410 ca         1 F0B      -0.131000
     13 C11          3.0250     0.1190     1.2390 c5         1 F0B       0.236200
     14 C14          2.3850    -2.2840     0.7000 cd         1 F0B      -0.059300
     15 C16          4.1600    -3.0270    -0.4350 ca         1 F0B      -0.046200
     16 C18          5.6160    -1.0930    -0.4810 ca         1 F0B      -0.068000
     17 C19          6.5230    -1.8470    -1.1990 ca         1 F0B      -0.159000
     18 C23         -3.7510     0.7890    -0.6300 ca         1 F0B      -0.048200
     19 C25         -1.9720     2.2840     0.0410 ca         1 F0B      -0.080000
     20 C27         -1.9020    -0.0870     0.5920 ca         1 F0B      -0.080300
     21 C29         -1.1550    -1.2250     1.2340 c3         1 F0B       0.213100
     22 C3           3.9050     3.3480    -0.3020 ca         1 F0B      -0.019000
     23 C30         -4.1170     2.9370    -1.2980 cc         1 F0B      -0.187200
     24 C31         -5.1470     2.1440    -1.7090 cd         1 F0B      -0.112100
     25 C34         -6.5110    -0.7330    -0.2710 ca         1 F0B      -0.115300
     26 C35         -6.8890     0.1600     0.7270 ca         1 F0B      -0.114000
     27 C36         -7.5520    -0.2910     1.8600 ca         1 F0B      -0.127000
     28 C37         -7.8460    -1.6410     2.0090 ca         1 F0B      -0.121000
     29 C38         -7.4680    -2.5380     1.0190 ca         1 F0B      -0.127000
     30 C39         -6.8010    -2.0850    -0.1120 ca         1 F0B      -0.114000
     31 C9           3.8340     2.2080     0.4810 ca         1 F0B      -0.210600
     32 N13          2.9280    -3.3560     0.0510 na         1 F0B      -0.170400
     33 N22          0.1590    -1.3610     0.6370 n7         1 F0B      -0.818200
     34 N32         -4.9320     0.8480    -1.3180 na         1 F0B      -0.062400
     35 N7           4.1440     0.6030     2.0300 ns         1 F0B      -0.583900
     36 O1           1.1500     2.6090    -2.5880 oh         1 F0B      -0.488100
     37 O2           5.5650     2.4070     2.1680 o          1 F0B      -0.633500
     38 H1           3.0360     4.3730    -1.9700 ha         1 F0B       0.132000
     39 H2           1.2230     0.5940    -0.9750 ha         1 F0B       0.167000
     40 H3           6.9890    -3.7490    -2.0940 ha         1 F0B       0.128000
     41 H4           4.8640    -4.8230    -1.4140 ha         1 F0B       0.130000
     42 H5          -0.3880     1.3470     1.1150 ha         1 F0B       0.139000
     43 H6          -3.5410    -1.2980    -0.0770 ha         1 F0B       0.131000
     44 H7           2.1180     0.0820     1.8520 h1         1 F0B       0.079700
     45 H8           0.6290    -3.3670     1.2390 h1         1 F0B       0.039200
     46 H9           1.0630    -2.0840     2.3510 h1         1 F0B       0.039200
     47 H10          5.8400    -0.0630    -0.2380 ha         1 F0B       0.143000
     48 H11          7.4580    -1.4010    -1.5140 ha         1 F0B       0.131000
     49 H12         -1.5200     3.2670     0.0790 ha         1 F0B       0.134000
     50 H13         -1.0130    -1.0160     2.3000 h1         1 F0B       0.035200
     51 H14         -1.7600    -2.1430     1.1790 h1         1 F0B       0.035200
     52 H15          4.6440     4.1160    -0.1120 ha         1 F0B       0.149000
     53 H16         -4.0210     3.9960    -1.4750 ha         1 F0B       0.155000
     54 H17         -6.0360     2.4000    -2.2660 h4         1 F0B       0.160000
     55 H18         -5.2810    -1.0870    -1.9900 h1         1 F0B       0.061700
     56 H19         -6.5730     0.0560    -2.2630 h1         1 F0B       0.061700
     57 H20         -6.6640     1.2150     0.6280 ha         1 F0B       0.134500
     58 H21         -7.8400     0.4140     2.6290 ha         1 F0B       0.133000
     59 H22         -8.3610    -1.9910     2.8940 ha         1 F0B       0.132000
     60 H23         -7.6840    -3.5920     1.1290 ha         1 F0B       0.133000
     61 H24         -6.5000    -2.7900    -0.8780 ha         1 F0B       0.134500
     62 H25          2.4820    -4.2530    -0.0480 hn         1 F0B       0.297700
     63 H26          0.0630    -1.5920    -0.3440 hn         1 F0B       0.366800
     64 H28          4.5100     0.0860     2.8140 hn         1 F0B       0.331500
     65 H29          1.2640     3.4420    -3.0580 ho         1 F0B       0.427000
     66 C12          1.0120    -2.3370     1.2870 c3         1 F0B       0.222000
     67 C33         -5.8270    -0.2600    -1.5310 c3         1 F0B       0.097600
@<TRIPOS>BOND
     1     1     2 ar  
     2     1    22 ar  
     3     1    38 1   
     4     2     3 ar  
     5     2    36 1   
     6     3     5 ar  
     7     3    39 1   
     8     4    31 1   
     9     4    35 1   
    10     4    37 2   
    11     5    13 1   
    12     5    31 ar  
    13     6     7 1   
    14     6    13 1   
    15     6    14 2   
    16     7    15 ar  
    17     7    16 ar  
    18     8     9 ar  
    19     8    17 ar  
    20     8    40 1   
    21     9    15 ar  
    22     9    41 1   
    23    10    18 ar  
    24    10    19 ar  
    25    10    23 1   
    26    11    19 ar  
    27    11    20 ar  
    28    11    42 1   
    29    12    18 ar  
    30    12    20 ar  
    31    12    43 1   
    32    13    35 1   
    33    13    44 1   
    34    14    32 1   
    35    14    66 1   
    36    15    32 1   
    37    16    17 ar  
    38    16    47 1   
    39    17    48 1   
    40    18    34 1   
    41    19    49 1   
    42    20    21 1   
    43    21    33 1   
    44    21    50 1   
    45    21    51 1   
    46    22    31 ar  
    47    22    52 1   
    48    23    24 2   
    49    23    53 1   
    50    24    34 1   
    51    24    54 1   
    52    25    26 ar  
    53    25    30 ar  
    54    25    67 1   
    55    26    27 ar  
    56    26    57 1   
    57    27    28 ar  
    58    27    58 1   
    59    28    29 ar  
    60    28    59 1   
    61    29    30 ar  
    62    29    60 1   
    63    30    61 1   
    64    32    62 1   
    65    33    63 1   
    66    33    66 1   
    67    34    67 1   
    68    35    64 1   
    69    36    65 1   
    70    45    66 1   
    71    46    66 1   
    72    55    67 1   
    73    56    67 1   
@<TRIPOS>SUBSTRUCTURE
     1 F0B         1 TEMP              0 ****  ****    0 ROOT
