@<TRIPOS>MOLECULE
F0C
   40    42     1     0     0
SMALL
No Charge or Current Charge


@<TRIPOS>ATOM
      1 C13          2.0480    37.8880    89.4020 ca         1 F0C      -0.113300
      2 C14          2.7940    40.5600    89.9430 ca         1 F0C       0.133100
      3 C17          3.2890    39.9030    88.7960 ca         1 F0C      -0.166500
      4 C31          1.5520    38.5490    90.5430 ca         1 F0C      -0.071000
      5 C33          4.0080    42.6490    89.4350 c3         1 F0C       0.149900
      6 N            3.1130    35.0170    87.7480 n2         1 F0C      -0.587900
      7 C            4.0070    33.5890    90.0270 c2         1 F0C      -0.091400
      8 C1           3.3930    34.7960    90.1290 ce         1 F0C      -0.217800
      9 C11          4.1790    32.9460    88.6630 c6         1 F0C      -0.069200
     10 C12          1.6510    36.4430    89.1090 c3         1 F0C      -0.065400
     11 C15          2.9140    38.5740    88.5290 ca         1 F0C      -0.071000
     12 C2           2.8280    35.4880    88.9310 ce         1 F0C       0.466600
     13 C3           4.2130    34.0470    87.5810 c6         1 F0C       0.099800
     14 C32          1.9270    39.8770    90.8100 ca         1 F0C      -0.166500
     15 C4           4.1480    33.3960    92.5700 c6         1 F0C      -0.072400
     16 C5           4.2130    34.9370    92.5630 c6         1 F0C      -0.074400
     17 C6           3.2670    35.5180    91.4860 c6         1 F0C      -0.028200
     18 C7           4.6080    32.8310    91.2080 c6         1 F0C      -0.037200
     19 O16          3.1260    41.8620    90.2570 os         1 F0C      -0.352100
     20 H1           3.9590    40.4030    88.1030 ha         1 F0C       0.121500
     21 H2           0.8800    38.0350    91.2270 ha         1 F0C       0.116500
     22 H3           4.1370    43.6500    89.8660 h1         1 F0C       0.040700
     23 H4           4.9970    42.1790    89.3640 h1         1 F0C       0.040700
     24 H5           3.5990    42.7640    88.4230 h1         1 F0C       0.040700
     25 H6           3.3470    32.2540    88.4750 hc         1 F0C       0.056700
     26 H7           5.1050    32.3570    88.6190 hc         1 F0C       0.056700
     27 H8           1.0250    36.4230    88.2090 hc         1 F0C       0.064200
     28 H9           0.9980    36.0650    89.9020 hc         1 F0C       0.064200
     29 H10          3.3000    38.0770    87.6410 ha         1 F0C       0.116500
     30 H11          4.1510    33.5920    86.5820 h1         1 F0C       0.058700
     31 H12          5.1680    34.5890    87.6420 h1         1 F0C       0.058700
     32 H13          1.5430    40.3800    91.6930 ha         1 F0C       0.121500
     33 H14          3.1180    33.0720    92.7780 hc         1 F0C       0.042700
     34 H15          5.2440    35.2610    92.3650 hc         1 F0C       0.043200
     35 H16          3.4840    36.5880    91.3720 hc         1 F0C       0.052700
     36 H17          4.3440    31.7660    91.1460 hc         1 F0C       0.048700
     37 H18          4.7740    32.9900    93.3760 hc         1 F0C       0.042700
     38 H19          3.9440    35.3340    93.5510 hc         1 F0C       0.043200
     39 H20          2.2310    35.4420    91.8450 hc         1 F0C       0.052700
     40 H21          5.7040    32.8830    91.1430 hc         1 F0C       0.048700
@<TRIPOS>BOND
     1     1     4 ar  
     2     1    10 1   
     3     1    11 ar  
     4     2     3 ar  
     5     2    14 ar  
     6     2    19 1   
     7     3    11 ar  
     8     3    20 1   
     9     4    14 ar  
    10     4    21 1   
    11     5    19 1   
    12     5    22 1   
    13     5    23 1   
    14     5    24 1   
    15     6    12 2   
    16     6    13 1   
    17     7     8 2   
    18     7     9 1   
    19     7    18 1   
    20     8    12 1   
    21     8    17 1   
    22     9    13 1   
    23     9    25 1   
    24     9    26 1   
    25    10    12 1   
    26    10    27 1   
    27    10    28 1   
    28    11    29 1   
    29    13    30 1   
    30    13    31 1   
    31    14    32 1   
    32    15    16 1   
    33    15    18 1   
    34    15    33 1   
    35    15    37 1   
    36    16    17 1   
    37    16    34 1   
    38    16    38 1   
    39    17    35 1   
    40    17    39 1   
    41    18    36 1   
    42    18    40 1   
@<TRIPOS>SUBSTRUCTURE
     1 F0C         1 TEMP              0 ****  ****    0 ROOT
