@<TRIPOS>MOLECULE
F0C
   40    42     1     0     0
SMALL
abcg2


@<TRIPOS>ATOM
      1 C13          1.9620    37.7790    89.4220 ca         1 F0C      -0.113300
      2 C14          2.7870    40.4190    89.9350 ca         1 F0C       0.133100
      3 C17          3.4120    39.6710    88.9380 ca         1 F0C      -0.166500
      4 C31          1.3480    38.5460    90.4150 ca         1 F0C      -0.071000
      5 C33          4.1870    42.3200    89.5430 c3         1 F0C       0.149900
      6 N            2.9150    35.0410    87.7400 n2         1 F0C      -0.587900
      7 C            4.0890    33.7560    90.0020 c2         1 F0C      -0.091400
      8 C1           3.3810    34.8930    90.1330 ce         1 F0C      -0.217800
      9 C11          4.1870    33.1080    88.6510 c6         1 F0C      -0.069200
     10 C12          1.5050    36.3600    89.1480 c3         1 F0C      -0.065400
     11 C15          2.9930    38.3640    88.6940 ca         1 F0C      -0.071000
     12 C2           2.6460    35.3890    88.9450 ce         1 F0C       0.466600
     13 C3           4.0640    34.1530    87.5570 c6         1 F0C       0.099800
     14 C32          1.7470    39.8470    90.6720 ca         1 F0C      -0.166500
     15 C4           4.2750    33.5720    92.5160 c6         1 F0C      -0.072400
     16 C5           4.2310    35.0970    92.5050 c6         1 F0C      -0.074400
     17 C6           3.2380    35.6030    91.4590 c6         1 F0C      -0.028200
     18 C7           4.7380    33.0510    91.1570 c6         1 F0C      -0.037200
     19 O16          3.1210    41.7000    90.2590 os         1 F0C      -0.352100
     20 H1           4.2190    40.0870    88.3540 ha         1 F0C       0.121500
     21 H2           0.5490    38.1110    91.0050 ha         1 F0C       0.116500
     22 H3           4.2880    43.3180    89.9610 h1         1 F0C       0.040700
     23 H4           5.1220    41.7700    89.6760 h1         1 F0C       0.040700
     24 H5           3.9570    42.3910    88.4770 h1         1 F0C       0.040700
     25 H6           3.3950    32.3510    88.5600 hc         1 F0C       0.056700
     26 H7           5.1350    32.5720    88.5540 hc         1 F0C       0.056700
     27 H8           0.8970    36.3370    88.2410 hc         1 F0C       0.064200
     28 H9           0.8730    36.0290    89.9740 hc         1 F0C       0.064200
     29 H10          3.4910    37.7930    87.9210 ha         1 F0C       0.116500
     30 H11          3.9860    33.6850    86.5750 h1         1 F0C       0.058700
     31 H12          4.9700    34.7750    87.5440 h1         1 F0C       0.058700
     32 H13          1.2690    40.4340    91.4470 ha         1 F0C       0.121500
     33 H14          3.2740    33.1850    92.7330 hc         1 F0C       0.042700
     34 H15          5.2300    35.4810    92.2730 hc         1 F0C       0.043200
     35 H16          3.3700    36.6760    91.3160 hc         1 F0C       0.052700
     36 H17          4.5430    31.9770    91.0630 hc         1 F0C       0.048700
     37 H18          4.9380    33.2060    93.3030 hc         1 F0C       0.042700
     38 H19          3.9590    35.4860    93.4890 hc         1 F0C       0.043200
     39 H20          2.2150    35.4780    91.8340 hc         1 F0C       0.052700
     40 H21          5.8260    33.1590    91.0600 hc         1 F0C       0.048700
@<TRIPOS>BOND
     1     1     4 ar  
     2     1    10 1   
     3     1    11 ar  
     4     2     3 ar  
     5     2    14 ar  
     6     2    19 1   
     7     3    11 ar  
     8     3    20 1   
     9     4    14 ar  
    10     4    21 1   
    11     5    19 1   
    12     5    22 1   
    13     5    23 1   
    14     5    24 1   
    15     6    12 2   
    16     6    13 1   
    17     7     8 2   
    18     7     9 1   
    19     7    18 1   
    20     8    12 1   
    21     8    17 1   
    22     9    13 1   
    23     9    25 1   
    24     9    26 1   
    25    10    12 1   
    26    10    27 1   
    27    10    28 1   
    28    11    29 1   
    29    13    30 1   
    30    13    31 1   
    31    14    32 1   
    32    15    16 1   
    33    15    18 1   
    34    15    33 1   
    35    15    37 1   
    36    16    17 1   
    37    16    34 1   
    38    16    38 1   
    39    17    35 1   
    40    17    39 1   
    41    18    36 1   
    42    18    40 1   
@<TRIPOS>SUBSTRUCTURE
     1 F0C         1 TEMP              0 ****  ****    0 ROOT
