@<TRIPOS>MOLECULE
F0D
   66    70     1     0     0
SMALL
abcg2


@<TRIPOS>ATOM
      1 C1           3.4290    -1.8530    -0.2910 ca         1 F0D      -0.108000
      2 C2           4.7310    -1.4190    -0.1060 ca         1 F0D      -0.106000
      3 C31          6.8930     0.9200    -1.0080 c3         1 F0D       0.097600
      4 C30          6.4050     0.4170     0.3400 c3         1 F0D      -0.028100
      5 C3           4.9940    -0.0860     0.1890 ca         1 F0D      -0.091300
      6 C5           3.9150     0.7820     0.2860 ca         1 F0D      -0.107000
      7 C6           2.6000     0.3600     0.1010 ca         1 F0D      -0.071300
      8 C7           1.4940     1.3750     0.2450 c6         1 F0D      -0.031100
      9 C8           0.1760     0.9110    -0.3500 c6         1 F0D      -0.070400
     10 C9          -0.1290    -0.5060     0.1100 c6         1 F0D      -0.044700
     11 C11          2.3400    -0.9850    -0.1930 ca         1 F0D      -0.058300
     12 C10          0.9270    -1.4680    -0.4630 c6         1 F0D      -0.013400
     13 C12          0.6610    -2.9160    -0.0260 c6         1 F0D      -0.068400
     14 C13         -0.7610    -3.3720    -0.3670 c6         1 F0D      -0.062400
     15 C14         -1.8090    -2.4150     0.1940 c5         1 F0D      -0.040000
     16 C20         -1.8270    -2.5070     1.7240 c3         1 F0D      -0.072100
     17 C15         -1.4980    -1.0020    -0.3180 c5         1 F0D      -0.066700
     18 C16         -2.7460    -0.2040     0.0400 c5         1 F0D      -0.063400
     19 C18         -3.2200    -2.5940    -0.3760 c5         1 F0D       0.177300
     20 O19         -3.8950    -3.6620     0.2390 oh         1 F0D      -0.650000
     21 C17         -3.9010    -1.1900    -0.2450 c5         1 F0D      -0.093700
     22 C21         -5.0320    -1.1250     0.7850 c3         1 F0D      -0.020100
     23 C22         -5.6910     0.2260     0.7990 ca         1 F0D      -0.086300
     24 C23         -6.5630     0.5890    -0.2230 ca         1 F0D      -0.059000
     25 C27         -5.4330     1.1520     1.8060 ca         1 F0D      -0.087000
     26 C26         -6.0290     2.4060     1.7880 ca         1 F0D      -0.119000
     27 C25         -6.9050     2.7490     0.7710 ca         1 F0D      -0.091000
     28 C24         -7.1840     1.8330    -0.2430 ca         1 F0D      -0.150600
     29 C28         -8.1080     2.1390    -1.3810 c          1 F0D       0.617700
     30 O29         -8.0320     1.5250    -2.4370 o          1 F0D      -0.607100
     31 N30         -9.0100     3.1080    -1.1710 nt         1 F0D      -0.605000
     32 H1           3.2680    -2.8980    -0.5210 ha         1 F0D       0.112000
     33 H2           5.5470    -2.1280    -0.1890 ha         1 F0D       0.112000
     34 H3           6.8960     0.1310    -1.7590 h1         1 F0D       0.074200
     35 H4           6.2900     1.7530    -1.3700 h1         1 F0D       0.074200
     36 H6           7.0550    -0.3850     0.6960 hc         1 F0D       0.062200
     37 H7           6.4460     1.2230     1.0740 hc         1 F0D       0.062200
     38 H8           4.0960     1.8290     0.5120 ha         1 F0D       0.109000
     39 H9           1.3480     1.5830     1.3110 hc         1 F0D       0.048700
     40 H10          1.8080     2.3220    -0.2020 hc         1 F0D       0.048700
     41 H11         -0.6200     1.5970    -0.0480 hc         1 F0D       0.045200
     42 H12          0.2180     0.9410    -1.4450 hc         1 F0D       0.045200
     43 H13         -0.0610    -0.5190     1.2060 hc         1 F0D       0.057700
     44 H14          0.7950    -1.4440    -1.5560 hc         1 F0D       0.053700
     45 H15          1.3590    -3.5940    -0.5190 hc         1 F0D       0.043700
     46 H16          0.8510    -3.0160     1.0470 hc         1 F0D       0.043700
     47 H17         -0.8660    -3.4110    -1.4580 hc         1 F0D       0.044200
     48 H18         -0.9200    -4.3900    -0.0010 hc         1 F0D       0.044200
     49 H19         -0.8580    -2.2560     2.1550 hc         1 F0D       0.036367
     50 H20         -2.5590    -1.8470     2.1890 hc         1 F0D       0.036367
     51 H21         -2.0600    -3.5240     2.0420 hc         1 F0D       0.036367
     52 H22         -1.4700    -1.0670    -1.4180 hc         1 F0D       0.044700
     53 H23         -2.7260     0.0980     1.0920 hc         1 F0D       0.048200
     54 H24         -2.8370     0.7120    -0.5450 hc         1 F0D       0.048200
     55 H25         -3.1090    -2.8030    -1.4500 h1         1 F0D       0.027700
     56 H26         -4.6850    -3.8590    -0.2720 ho         1 F0D       0.442000
     57 H27         -4.3380    -0.9410    -1.2170 hc         1 F0D       0.051700
     58 H28         -5.7870    -1.8820     0.5570 hc         1 F0D       0.053700
     59 H29         -4.6520    -1.3570     1.7820 hc         1 F0D       0.053700
     60 H30         -6.7700    -0.1220    -1.0150 ha         1 F0D       0.133000
     61 H31         -4.7600     0.8910     2.6140 ha         1 F0D       0.115000
     62 H32         -5.8090     3.1210     2.5700 ha         1 F0D       0.115000
     63 H33         -7.3450     3.7390     0.7700 ha         1 F0D       0.109000
     64 H34         -9.1430     3.5470    -0.2780 hn         1 F0D       0.314500
     65 H35         -9.6540     3.3580    -1.9040 hn         1 F0D       0.314500
     66 BR1          8.7470     1.5890    -0.8990 br         1 F0D      -0.284000
@<TRIPOS>BOND
     1     1     2 ar  
     2     1    11 ar  
     3     1    32 1   
     4     2     5 ar  
     5     2    33 1   
     6     3     4 1   
     7     3    34 1   
     8     3    35 1   
     9     3    66 1   
    10     4     5 1   
    11     4    36 1   
    12     4    37 1   
    13     5     6 ar  
    14     6     7 ar  
    15     6    38 1   
    16     7     8 1   
    17     7    11 ar  
    18     8     9 1   
    19     8    39 1   
    20     8    40 1   
    21     9    10 1   
    22     9    41 1   
    23     9    42 1   
    24    10    12 1   
    25    10    17 1   
    26    10    43 1   
    27    11    12 1   
    28    12    13 1   
    29    12    44 1   
    30    13    14 1   
    31    13    45 1   
    32    13    46 1   
    33    14    15 1   
    34    14    47 1   
    35    14    48 1   
    36    15    16 1   
    37    15    17 1   
    38    15    19 1   
    39    16    49 1   
    40    16    50 1   
    41    16    51 1   
    42    17    18 1   
    43    17    52 1   
    44    18    21 1   
    45    18    53 1   
    46    18    54 1   
    47    19    20 1   
    48    19    21 1   
    49    19    55 1   
    50    20    56 1   
    51    21    22 1   
    52    21    57 1   
    53    22    23 1   
    54    22    58 1   
    55    22    59 1   
    56    23    24 ar  
    57    23    25 ar  
    58    24    28 ar  
    59    24    60 1   
    60    25    26 ar  
    61    25    61 1   
    62    26    27 ar  
    63    26    62 1   
    64    27    28 ar  
    65    27    63 1   
    66    28    29 1   
    67    29    30 2   
    68    29    31 1   
    69    31    64 1   
    70    31    65 1   
@<TRIPOS>SUBSTRUCTURE
     1 F0D         1 TEMP              0 ****  ****    0 ROOT
