@<TRIPOS>MOLECULE
F0D
   66    70     1     0     0
SMALL
No Charge or Current Charge


@<TRIPOS>ATOM
      1 C1           3.4920    -1.8270    -0.2360 ca         1 F0D      -0.108000
      2 C2           4.7810    -1.3110    -0.0260 ca         1 F0D      -0.106000
      3 C31          7.0170     1.0960    -0.9290 c3         1 F0D       0.097600
      4 C30          6.3690     0.6290     0.3870 c3         1 F0D      -0.028100
      5 C3           4.9720     0.0660     0.1640 ca         1 F0D      -0.091300
      6 C5           3.8590     0.9230     0.1280 ca         1 F0D      -0.107000
      7 C6           2.5620     0.4190    -0.0870 ca         1 F0D      -0.071300
      8 C7           1.4000     1.4200    -0.1120 c6         1 F0D      -0.031100
      9 C8           0.0750     0.8360    -0.6430 c6         1 F0D      -0.070400
     10 C9          -0.1740    -0.5590    -0.0300 c6         1 F0D      -0.044700
     11 C11          2.3610    -0.9780    -0.2520 ca         1 F0D      -0.058300
     12 C10          0.9410    -1.5460    -0.5110 c6         1 F0D      -0.013400
     13 C12          0.6950    -2.9850     0.0620 c6         1 F0D      -0.068400
     14 C13         -0.7420    -3.5130    -0.2360 c6         1 F0D      -0.062400
     15 C14         -1.8430    -2.5260     0.2500 c5         1 F0D      -0.040000
     16 C20         -1.8630    -2.5560     1.8220 c3         1 F0D      -0.072100
     17 C15         -1.5710    -1.1340    -0.3990 c5         1 F0D      -0.066700
     18 C16         -2.8390    -0.3450     0.0190 c5         1 F0D      -0.063400
     19 C18         -3.2550    -2.7740    -0.3880 c5         1 F0D       0.177300
     20 O19         -3.9640    -3.8600     0.2120 oh         1 F0D      -0.650000
     21 C17         -3.9910    -1.3780    -0.2620 c5         1 F0D      -0.093700
     22 C21         -5.1760    -1.2810     0.7410 c3         1 F0D      -0.020100
     23 C22         -5.7780     0.1180     0.8340 ca         1 F0D      -0.086300
     24 C23         -6.5670     0.6200    -0.2190 ca         1 F0D      -0.059000
     25 C27         -5.5440     0.9180     1.9670 ca         1 F0D      -0.087000
     26 C26         -6.0930     2.2070     2.0430 ca         1 F0D      -0.119000
     27 C25         -6.8800     2.7070     0.9920 ca         1 F0D      -0.091000
     28 C24         -7.1280     1.9170    -0.1570 ca         1 F0D      -0.150600
     29 C28         -7.9690     2.4200    -1.3100 c          1 F0D       0.617700
     30 O29         -8.1940     1.7520    -2.3060 o          1 F0D      -0.607100
     31 N30         -8.4920     3.6630    -1.2270 nt         1 F0D      -0.605000
     32 H1           3.3930    -2.8950    -0.3960 ha         1 F0D       0.112000
     33 H2           5.6330    -1.9870    -0.0170 ha         1 F0D       0.112000
     34 H3           7.1190     0.2590    -1.6320 h1         1 F0D       0.074200
     35 H4           6.4220     1.8930    -1.3940 h1         1 F0D       0.074200
     36 H6           7.0140    -0.1260     0.8530 hc         1 F0D       0.062200
     37 H7           6.3300     1.4740     1.0850 hc         1 F0D       0.062200
     38 H8           4.0020     1.9930     0.2650 ha         1 F0D       0.109000
     39 H9           1.2410     1.7910     0.9100 hc         1 F0D       0.048700
     40 H10          1.6750     2.2970    -0.7130 hc         1 F0D       0.048700
     41 H11         -0.7440     1.5250    -0.3990 hc         1 F0D       0.045200
     42 H12          0.1110     0.7650    -1.7390 hc         1 F0D       0.045200
     43 H13         -0.1120    -0.4560     1.0620 hc         1 F0D       0.057700
     44 H14          0.8500    -1.6310    -1.6040 hc         1 F0D       0.053700
     45 H15          1.3980    -3.6990    -0.3840 hc         1 F0D       0.043700
     46 H16          0.8950    -2.9980     1.1420 hc         1 F0D       0.043700
     47 H17         -0.8410    -3.6680    -1.3200 hc         1 F0D       0.044200
     48 H18         -0.8840    -4.5020     0.2220 hc         1 F0D       0.044200
     49 H19         -0.9250    -2.2060     2.2630 hc         1 F0D       0.036367
     50 H20         -2.6590    -1.9430     2.2540 hc         1 F0D       0.036367
     51 H21         -2.0240    -3.5760     2.1900 hc         1 F0D       0.036367
     52 H22         -1.5500    -1.2160    -1.4940 hc         1 F0D       0.044700
     53 H23         -2.7980    -0.0330     1.0690 hc         1 F0D       0.048200
     54 H24         -2.9690     0.5710    -0.5690 hc         1 F0D       0.048200
     55 H25         -3.1230    -2.9950    -1.4570 h1         1 F0D       0.027700
     56 H26         -4.7720    -4.0000    -0.3260 ho         1 F0D       0.442000
     57 H27         -4.4300    -1.1500    -1.2400 hc         1 F0D       0.051700
     58 H28         -5.9640    -1.9830     0.4430 hc         1 F0D       0.053700
     59 H29         -4.8560    -1.6130     1.7350 hc         1 F0D       0.053700
     60 H30         -6.7430    -0.0050    -1.0920 ha         1 F0D       0.133000
     61 H31         -4.9340     0.5450     2.7860 ha         1 F0D       0.115000
     62 H32         -5.9080     2.8220     2.9210 ha         1 F0D       0.115000
     63 H33         -7.2890     3.7090     1.0850 ha         1 F0D       0.109000
     64 H34         -8.3200     4.2330    -0.4140 hn         1 F0D       0.314500
     65 H35         -9.0550     4.0110    -1.9890 hn         1 F0D       0.314500
     66 Br1          8.8450     1.8320    -0.6280 br         1 F0D      -0.284000
@<TRIPOS>BOND
     1     1     2 ar  
     2     1    11 ar  
     3     1    32 1   
     4     2     5 ar  
     5     2    33 1   
     6     3     4 1   
     7     3    34 1   
     8     3    35 1   
     9     3    66 1   
    10     4     5 1   
    11     4    36 1   
    12     4    37 1   
    13     5     6 ar  
    14     6     7 ar  
    15     6    38 1   
    16     7     8 1   
    17     7    11 ar  
    18     8     9 1   
    19     8    39 1   
    20     8    40 1   
    21     9    10 1   
    22     9    41 1   
    23     9    42 1   
    24    10    12 1   
    25    10    17 1   
    26    10    43 1   
    27    11    12 1   
    28    12    13 1   
    29    12    44 1   
    30    13    14 1   
    31    13    45 1   
    32    13    46 1   
    33    14    15 1   
    34    14    47 1   
    35    14    48 1   
    36    15    16 1   
    37    15    17 1   
    38    15    19 1   
    39    16    49 1   
    40    16    50 1   
    41    16    51 1   
    42    17    18 1   
    43    17    52 1   
    44    18    21 1   
    45    18    53 1   
    46    18    54 1   
    47    19    20 1   
    48    19    21 1   
    49    19    55 1   
    50    20    56 1   
    51    21    22 1   
    52    21    57 1   
    53    22    23 1   
    54    22    58 1   
    55    22    59 1   
    56    23    24 ar  
    57    23    25 ar  
    58    24    28 ar  
    59    24    60 1   
    60    25    26 ar  
    61    25    61 1   
    62    26    27 ar  
    63    26    62 1   
    64    27    28 ar  
    65    27    63 1   
    66    28    29 1   
    67    29    30 2   
    68    29    31 1   
    69    31    64 1   
    70    31    65 1   
@<TRIPOS>SUBSTRUCTURE
     1 F0D         1 TEMP              0 ****  ****    0 ROOT
