@<TRIPOS>MOLECULE
F0E
  117   124     1     0     0
SMALL
No Charge or Current Charge


@<TRIPOS>ATOM
      1 C10         11.5930    -5.9560    -0.9880 c3         1 F0E      -0.085900
      2 C11         12.1530    -7.3940    -1.1280 c3         1 F0E      -0.067900
      3 C12         13.6670    -7.5310    -1.4200 c3         1 F0E      -0.070400
      4 C13         14.6560    -7.0250    -0.3390 c3         1 F0E      -0.073400
      5 C14         14.3100    -7.4010     1.1260 c3         1 F0E      -0.070400
      6 C15         13.6400    -6.2830     1.9670 c3         1 F0E      -0.067900
      7 C16         12.2160    -5.8200     1.5580 c3         1 F0E      -0.085900
      8 O01         -5.3030    -0.0070     2.2250 o          1 F0E      -0.576100
      9 C02         -5.6040    -0.0000     1.0350 c          1 F0E       0.609100
     10 C03         -5.3230     1.2380     0.1160 c3         1 F0E       0.095800
     11 N04         -4.6280     2.4360     0.6900 n3         1 F0E      -0.685600
     12 C05         -5.3690     3.1870     1.7250 c5         1 F0E       0.158800
     13 C06         -4.3410     4.2980     2.0310 c5         1 F0E      -0.073400
     14 C07         -3.8330     4.6810     0.5980 c5         1 F0E      -0.154700
     15 C08         -4.2470     3.4740    -0.2960 c5         1 F0E       0.174800
     16 C09         -2.2880     4.8340     0.5790 c          1 F0E       0.612100
     17 O0A         -1.4660     3.9870     0.9120 o          1 F0E      -0.567100
     18 C0C         -0.7330     6.7670    -0.0960 ca         1 F0E      -0.053000
     19 C0D         -0.7720     8.1430    -0.4400 ca         1 F0E      -0.122000
     20 C0E          0.4140     8.8600    -0.7020 ca         1 F0E      -0.096000
     21 C0F          1.6280     8.1740    -0.5930 ca         1 F0E      -0.072200
     22 N0G          2.9130     8.6190    -0.8430 na         1 F0E      -0.042400
     23 N0H          3.8360     7.5740    -0.6610 nc         1 F0E      -0.494100
     24 C0I          3.0910     6.5250    -0.2740 cd         1 F0E       0.380500
     25 C0J          3.6800     5.2110     0.0570 ca         1 F0E      -0.057900
     26 C0K          3.1620     4.4040     1.0890 ca         1 F0E      -0.132000
     27 C0L          3.7920     3.1890     1.4010 ca         1 F0E       0.333900
     28 N0M          4.9030     2.7520     0.7670 nb         1 F0E      -0.678000
     29 C0N          5.4430     3.5360    -0.2150 ca         1 F0E       0.279500
     30 C0O          4.8590     4.7700    -0.5770 ca         1 F0E      -0.083000
     31 C0P          6.7140     3.0610    -0.9310 c          1 F0E       0.506600
     32 O0Q          7.2680     3.6970    -1.8230 o          1 F0E      -0.607100
     33 N0R          7.2150     1.8450    -0.5080 ns         1 F0E      -0.491900
     34 C0S          8.4120     1.1990    -1.0440 c3         1 F0E       0.110000
     35 C0T          8.7140    -0.1240    -0.3180 c3         1 F0E      -0.117400
     36 C0U          9.9710    -0.8230    -0.8660 c3         1 F0E       0.126000
     37 N0V         10.2380    -2.0750    -0.1630 ns         1 F0E      -0.510900
     38 O0X         12.0160    -2.7950    -1.4170 o          1 F0E      -0.548000
     39 O0Y         11.1990    -3.9960     0.3740 os         1 F0E      -0.480100
     40 C0Z         12.1250    -5.0870     0.1900 c3         1 F0E       0.202300
     41 C17          1.6810     6.8620    -0.2430 ca         1 F0E      -0.179900
     42 C18          0.5200     6.1060    -0.0100 ca         1 F0E      -0.070000
     43 N19         -6.1850    -1.1520     0.4470 n          1 F0E      -0.422800
     44 C1A         -6.5210    -2.3680     1.2390 c6         1 F0E       0.091500
     45 C1B         -8.0580    -2.5450     1.3870 c6         1 F0E       0.187300
     46 N1C         -8.7590    -2.5020     0.0640 nh         1 F0E      -0.798400
     47 C1D         -8.3730    -1.3310    -0.7860 c6         1 F0E       0.187300
     48 C1E         -6.8290    -1.1760    -0.8980 c6         1 F0E       0.091500
     49 C1F        -10.0220    -3.1140    -0.1130 ca         1 F0E       0.332000
     50 C1G        -10.9200    -3.2640     0.9570 ca         1 F0E      -0.192500
     51 C1H        -12.1710    -3.8740     0.7650 ca         1 F0E      -0.026500
     52 C1I        -12.5690    -4.3610    -0.5110 cp         1 F0E      -0.200500
     53 C1J        -11.6450    -4.2020    -1.5800 ca         1 F0E      -0.026500
     54 C1K        -10.3960    -3.5890    -1.3790 ca         1 F0E      -0.192500
     55 C1L        -13.9110    -5.0170    -0.7210 cp         1 F0E       0.208500
     56 N1M        -14.7330    -5.1330     0.3480 nb         1 F0E      -0.186000
     57 C1N        -15.9330    -5.7180     0.1630 ca         1 F0E       0.117400
     58 C1O        -16.3220    -6.1950    -1.0980 ca         1 F0E      -0.231000
     59 C1P        -15.4140    -6.0370    -2.1560 ca         1 F0E       0.117400
     60 N1Q        -14.2150    -5.4510    -1.9660 nb         1 F0E      -0.186000
     61 H2H         11.7720    -5.4260    -1.9300 hc         1 F0E       0.051700
     62 H2G         10.5030    -6.0390    -0.8870 hc         1 F0E       0.051700
     63 H2J         11.8860    -7.9890    -0.2480 hc         1 F0E       0.037950
     64 H2I         11.6190    -7.8690    -1.9600 hc         1 F0E       0.037950
     65 H2L         13.8720    -8.5960    -1.5870 hc         1 F0E       0.037450
     66 H2K         13.8960    -7.0290    -2.3670 hc         1 F0E       0.037450
     67 H2M         15.6360    -7.4580    -0.5750 hc         1 F0E       0.039700
     68 H1          14.8010    -5.9430    -0.4300 hc         1 F0E       0.039700
     69 H2N         13.7040    -8.3140     1.1580 hc         1 F0E       0.037450
     70 H2          15.2500    -7.6590     1.6300 hc         1 F0E       0.037450
     71 H2P         13.5880    -6.6360     3.0050 hc         1 F0E       0.037950
     72 H2O         14.3030    -5.4090     1.9860 hc         1 F0E       0.037950
     73 H2R         11.5220    -6.6670     1.5890 hc         1 F0E       0.051700
     74 H2Q         11.8720    -5.1350     2.3430 hc         1 F0E       0.051700
     75 H1S         -4.7310     0.8550    -0.7250 h1         1 F0E       0.046700
     76 H1R         -6.2910     1.5510    -0.2960 h1         1 F0E       0.046700
     77 H1T         -6.3110     3.6000     1.3350 h1         1 F0E       0.046700
     78 H1U         -5.5970     2.5850     2.6150 h1         1 F0E       0.046700
     79 H1W         -4.7890     5.1450     2.5620 hc         1 F0E       0.059200
     80 H1V         -3.5370     3.9070     2.6660 hc         1 F0E       0.059200
     81 H1X         -4.3200     5.5970     0.2410 hc         1 F0E       0.058700
     82 H1Z         -3.4400     3.1370    -0.9620 h1         1 F0E       0.047200
     83 H1Y         -5.1050     3.7450    -0.9280 h1         1 F0E       0.047200
     84 H20         -2.7820     6.6860    -0.0810 hn         1 F0E       0.147000
     85 H21         -1.7290     8.6550    -0.5170 ha         1 F0E       0.110000
     86 H22          0.3820     9.9100    -0.9870 ha         1 F0E       0.123000
     87 H23          3.1940     9.5540    -1.1370 hn         1 F0E       0.381000
     88 H24          2.2960     4.7120     1.6670 ha         1 F0E       0.138000
     89 H25          3.4020     2.5510     2.1930 h4         1 F0E       0.024100
     90 H26          5.3190     5.3720    -1.3560 ha         1 F0E       0.161000
     91 H27          6.6920     1.3900     0.2340 hn         1 F0E       0.341500
     92 H28          8.2600     1.0070    -2.1150 h1         1 F0E       0.054200
     93 H29          9.2630     1.8840    -0.9340 h1         1 F0E       0.054200
     94 H2A          8.8490     0.0750     0.7520 hc         1 F0E       0.051700
     95 H2B          7.8540    -0.7970    -0.4210 hc         1 F0E       0.051700
     96 H2C          9.8380    -1.0390    -1.9350 h1         1 F0E       0.053700
     97 H2D         10.8420    -0.1630    -0.7540 h1         1 F0E       0.053700
     98 H2E          9.6670    -2.3330     0.6310 hn         1 F0E       0.326500
     99 H2F         13.1160    -4.6870    -0.0560 h1         1 F0E       0.071700
    100 H2S          0.5940     5.0450     0.2050 ha         1 F0E       0.156000
    101 H2U         -6.1100    -3.2490     0.7250 h1         1 F0E       0.061950
    102 H2T         -6.0600    -2.3360     2.2350 h1         1 F0E       0.061950
    103 H2W         -8.2490    -3.5050     1.8900 h1         1 F0E       0.048950
    104 H2V         -8.4440    -1.7480     2.0400 h1         1 F0E       0.048950
    105 H2Y         -8.7860    -1.4280    -1.8000 h1         1 F0E       0.048950
    106 H2X         -8.7900    -0.4090    -0.3550 h1         1 F0E       0.048950
    107 H30         -6.5980    -0.2790    -1.4850 h1         1 F0E       0.061950
    108 H2Z         -6.4310    -2.0320    -1.4610 h1         1 F0E       0.061950
    109 H31        -10.6620    -2.8980     1.9450 ha         1 F0E       0.113500
    110 H32        -12.8340    -3.9640     1.6230 ha         1 F0E       0.132000
    111 H33        -11.8870    -4.5560    -2.5800 ha         1 F0E       0.132000
    112 H34         -9.7100    -3.4960    -2.2160 ha         1 F0E       0.113500
    113 H35        -16.5830    -5.8040     1.0320 h4         1 F0E       0.023100
    114 H36        -17.2890    -6.6670    -1.2500 ha         1 F0E       0.135000
    115 H37        -15.6440    -6.3810    -3.1640 h4         1 F0E       0.023100
    116 C0W         11.2230    -2.9530    -0.5030 c          1 F0E       0.643100
    117 N0B         -1.9760     6.1120     0.1280 ns         1 F0E      -0.149000
@<TRIPOS>BOND
     1     1     2 1   
     2     1    40 1   
     3     1    61 1   
     4     1    62 1   
     5     2     3 1   
     6     2    63 1   
     7     2    64 1   
     8     3     4 1   
     9     3    65 1   
    10     3    66 1   
    11     4     5 1   
    12     4    67 1   
    13     4    68 1   
    14     5     6 1   
    15     5    69 1   
    16     5    70 1   
    17     6     7 1   
    18     6    71 1   
    19     6    72 1   
    20     7    40 1   
    21     7    73 1   
    22     7    74 1   
    23     8     9 2   
    24     9    10 1   
    25     9    43 1   
    26    10    11 1   
    27    10    75 1   
    28    10    76 1   
    29    11    12 1   
    30    11    15 1   
    31    12    13 1   
    32    12    77 1   
    33    12    78 1   
    34    13    14 1   
    35    13    79 1   
    36    13    80 1   
    37    14    15 1   
    38    14    16 1   
    39    14    81 1   
    40    15    82 1   
    41    15    83 1   
    42    16    17 2   
    43    16   117 1   
    44    18    19 ar  
    45    18    42 ar  
    46    18   117 1   
    47    19    20 ar  
    48    19    85 1   
    49    20    21 ar  
    50    20    86 1   
    51    21    22 1   
    52    21    41 ar  
    53    22    23 1   
    54    22    87 1   
    55    23    24 2   
    56    24    25 1   
    57    24    41 1   
    58    25    26 ar  
    59    25    30 ar  
    60    26    27 ar  
    61    26    88 1   
    62    27    28 ar  
    63    27    89 1   
    64    28    29 ar  
    65    29    30 ar  
    66    29    31 1   
    67    30    90 1   
    68    31    32 2   
    69    31    33 1   
    70    33    34 1   
    71    33    91 1   
    72    34    35 1   
    73    34    92 1   
    74    34    93 1   
    75    35    36 1   
    76    35    94 1   
    77    35    95 1   
    78    36    37 1   
    79    36    96 1   
    80    36    97 1   
    81    37    98 1   
    82    37   116 1   
    83    38   116 2   
    84    39    40 1   
    85    39   116 1   
    86    40    99 1   
    87    41    42 ar  
    88    42   100 1   
    89    43    44 1   
    90    43    48 1   
    91    44    45 1   
    92    44   101 1   
    93    44   102 1   
    94    45    46 1   
    95    45   103 1   
    96    45   104 1   
    97    46    47 1   
    98    46    49 1   
    99    47    48 1   
   100    47   105 1   
   101    47   106 1   
   102    48   107 1   
   103    48   108 1   
   104    49    50 ar  
   105    49    54 ar  
   106    50    51 ar  
   107    50   109 1   
   108    51    52 ar  
   109    51   110 1   
   110    52    53 ar  
   111    52    55 1   
   112    53    54 ar  
   113    53   111 1   
   114    54   112 1   
   115    55    56 ar  
   116    55    60 ar  
   117    56    57 ar  
   118    57    58 ar  
   119    57   113 1   
   120    58    59 ar  
   121    58   114 1   
   122    59    60 ar  
   123    59   115 1   
   124    84   117 1   
@<TRIPOS>SUBSTRUCTURE
     1 F0E         1 TEMP              0 ****  ****    0 ROOT
