@<TRIPOS>MOLECULE
F0E
  117   124     1     0     0
SMALL
abcg2


@<TRIPOS>ATOM
      1 C10         12.8050    -5.6740    -1.3430 c3         1 F0E      -0.085900
      2 C11         13.7570    -6.8540    -1.5060 c3         1 F0E      -0.067900
      3 C12         15.2440    -6.5840    -1.3100 c3         1 F0E      -0.070400
      4 C13         15.6940    -6.1480     0.0860 c3         1 F0E      -0.073400
      5 C14         15.0880    -6.9460     1.2500 c3         1 F0E      -0.070400
      6 C15         13.9170    -6.2780     1.9700 c3         1 F0E      -0.067900
      7 C16         12.6180    -6.0430     1.1990 c3         1 F0E      -0.085900
      8 O01         -5.6060     0.5410     1.7450 o          1 F0E      -0.576100
      9 C02         -6.0770     0.3510     0.6340 c          1 F0E       0.609100
     10 C03         -5.7710     1.2860    -0.5290 c3         1 F0E       0.095800
     11 N04         -4.9660     2.4080    -0.1360 n3         1 F0E      -0.685600
     12 C05         -5.6710     3.4410     0.6010 c5         1 F0E       0.158800
     13 C06         -4.6590     4.5750     0.6420 c5         1 F0E      -0.073400
     14 C07         -3.9240     4.4530    -0.7210 c5         1 F0E      -0.154700
     15 C08         -4.3820     3.0990    -1.2740 c5         1 F0E       0.174800
     16 C09         -2.4270     4.5500    -0.5120 c          1 F0E       0.612100
     17 O0A         -1.7100     3.5750    -0.3740 o          1 F0E      -0.567100
     18 C0C         -0.6920     6.3010    -0.1580 ca         1 F0E      -0.053000
     19 C0D         -0.5840     7.7040     0.0300 ca         1 F0E      -0.122000
     20 C0E          0.6130     8.3160     0.2940 ca         1 F0E      -0.096000
     21 C0F          1.7390     7.4940     0.3880 ca         1 F0E      -0.072200
     22 N0G          3.0450     7.7720     0.6140 na         1 F0E      -0.042400
     23 N0H          3.7990     6.6880     0.6080 nc         1 F0E      -0.494100
     24 C0I          3.0060     5.6590     0.3810 cd         1 F0E       0.380500
     25 C0J          3.5650     4.3120     0.3120 ca         1 F0E      -0.057900
     26 C0K          2.7990     3.1770     0.5620 ca         1 F0E      -0.132000
     27 C0L          3.3960     1.9270     0.4840 ca         1 F0E       0.333900
     28 N0M          4.6720     1.7480     0.1860 nb         1 F0E      -0.678000
     29 C0N          5.4130     2.8290    -0.0440 ca         1 F0E       0.279500
     30 C0O          4.9130     4.1180     0.0040 ca         1 F0E      -0.083000
     31 C0P          6.8640     2.6150    -0.3790 c          1 F0E       0.506600
     32 O0Q          7.6060     3.5590    -0.6190 o          1 F0E      -0.607100
     33 N0R          7.2520     1.3390    -0.3840 ns         1 F0E      -0.491900
     34 C0S          8.6020     0.9290    -0.6950 c3         1 F0E       0.110000
     35 C0T          8.8200    -0.5210    -0.2960 c3         1 F0E      -0.117400
     36 C0U         10.2260    -0.9770    -0.6510 c3         1 F0E       0.126000
     37 N0V         10.4170    -2.3510    -0.2440 ns         1 F0E      -0.510900
     38 O0X         12.6130    -2.4350    -0.7860 o          1 F0E      -0.548000
     39 O0Y         11.5420    -4.2210     0.0970 os         1 F0E      -0.480100
     40 C0Z         12.7290    -5.0430     0.0460 c3         1 F0E       0.202300
     41 C17          1.6570     6.1040     0.2240 ca         1 F0E      -0.179900
     42 C18          0.4270     5.4950    -0.0670 ca         1 F0E      -0.070000
     43 N19         -6.8850    -0.6980     0.3640 n          1 F0E      -0.422800
     44 C1A         -7.2480    -1.6630     1.3800 c6         1 F0E       0.091500
     45 C1B         -8.7580    -1.8140     1.4780 c6         1 F0E       0.187300
     46 N1C         -9.3360    -2.1200     0.1830 nh         1 F0E      -0.798400
     47 C1D         -8.9450    -1.1670    -0.8440 c6         1 F0E       0.187300
     48 C1E         -7.4350    -1.0430    -0.9300 c6         1 F0E       0.091500
     49 C1F        -10.5920    -2.6930     0.1250 ca         1 F0E       0.332000
     50 C1G        -11.3420    -2.9730     1.2800 ca         1 F0E      -0.192500
     51 C1H        -12.5740    -3.5960     1.2040 ca         1 F0E      -0.026500
     52 C1I        -13.1340    -3.9610    -0.0180 cp         1 F0E      -0.200500
     53 C1J        -12.3990    -3.6730    -1.1710 ca         1 F0E      -0.026500
     54 C1K        -11.1660    -3.0590    -1.1070 ca         1 F0E      -0.192500
     55 C1L        -14.4450    -4.6220    -0.0940 cp         1 F0E       0.208500
     56 N1M        -15.0740    -4.8890     1.0510 nb         1 F0E      -0.186000
     57 C1N        -16.2510    -5.4890     0.9750 ca         1 F0E       0.117400
     58 C1O        -16.8290    -5.8400    -0.2340 ca         1 F0E      -0.231000
     59 C1P        -16.0990    -5.5180    -1.3660 ca         1 F0E       0.117400
     60 N1Q        -14.9220    -4.9150    -1.3040 nb         1 F0E      -0.186000
     61 H2H         13.0550    -4.8990    -2.0730 hc         1 F0E       0.051700
     62 H2G         11.8000    -6.0270    -1.5940 hc         1 F0E       0.051700
     63 H2J         13.4400    -7.6750    -0.8580 hc         1 F0E       0.037950
     64 H2I         13.6210    -7.2330    -2.5230 hc         1 F0E       0.037950
     65 H2L         15.7750    -7.5060    -1.5660 hc         1 F0E       0.037450
     66 H2K         15.5760    -5.8380    -2.0390 hc         1 F0E       0.037450
     67 H2M         16.7820    -6.2430     0.1170 hc         1 F0E       0.039700
     68 H1          15.5040    -5.0810     0.2330 hc         1 F0E       0.039700
     69 H2N         14.7960    -7.9460     0.9130 hc         1 F0E       0.037450
     70 H2          15.8630    -7.1100     2.0030 hc         1 F0E       0.037450
     71 H2P         13.6690    -6.8830     2.8470 hc         1 F0E       0.037950
     72 H2O         14.2580    -5.3140     2.3640 hc         1 F0E       0.037950
     73 H2R         12.2020    -6.9940     0.8520 hc         1 F0E       0.051700
     74 H2Q         11.8960    -5.6500     1.9190 hc         1 F0E       0.051700
     75 H1S         -5.2270     0.7120    -1.2860 h1         1 F0E       0.046700
     76 H1R         -6.7110     1.6080    -1.0090 h1         1 F0E       0.046700
     77 H1T         -6.5870     3.7600     0.0740 h1         1 F0E       0.046700
     78 H1U         -5.9600     3.1010     1.5950 h1         1 F0E       0.046700
     79 H1W         -5.1240     5.5510     0.7710 hc         1 F0E       0.059200
     80 H1V         -3.9690     4.4270     1.4740 hc         1 F0E       0.059200
     81 H1X         -4.2470     5.2530    -1.3910 hc         1 F0E       0.058700
     82 H1Z         -3.5730     2.5130    -1.7110 h1         1 F0E       0.047200
     83 H1Y         -5.1250     3.2760    -2.0680 h1         1 F0E       0.047200
     84 H20         -2.6740     6.5490    -0.5770 hn         1 F0E       0.147000
     85 H21         -1.4770     8.3120    -0.0440 ha         1 F0E       0.110000
     86 H22          0.6750     9.3880     0.4210 ha         1 F0E       0.123000
     87 H23          3.4640     8.6710     0.7920 hn         1 F0E       0.381000
     88 H24          1.7570     3.2430     0.8390 ha         1 F0E       0.138000
     89 H25          2.8110     1.0360     0.6770 h4         1 F0E       0.024100
     90 H26          5.5580     4.9600    -0.2020 ha         1 F0E       0.161000
     91 H27          6.5450     0.6390    -0.2100 hn         1 F0E       0.341500
     92 H28          8.8020     1.0580    -1.7640 h1         1 F0E       0.054200
     93 H29          9.3050     1.5710    -0.1610 h1         1 F0E       0.054200
     94 H2A          8.6560    -0.6340     0.7790 hc         1 F0E       0.051700
     95 H2B          8.0900    -1.1570    -0.8070 hc         1 F0E       0.051700
     96 H2C         10.3890    -0.8680    -1.7270 h1         1 F0E       0.053700
     97 H2D         10.9570    -0.3360    -0.1500 h1         1 F0E       0.053700
     98 H2E          9.6280    -2.8700     0.1060 hn         1 F0E       0.326500
     99 H2F         13.5890    -4.3920     0.2120 h1         1 F0E       0.071700
    100 H2S          0.3520     4.4340    -0.2310 ha         1 F0E       0.156000
    101 H2U         -6.8030    -2.6310     1.1290 h1         1 F0E       0.061950
    102 H2T         -6.8560    -1.3530     2.3450 h1         1 F0E       0.061950
    103 H2W         -8.9500    -2.6330     2.1710 h1         1 F0E       0.048950
    104 H2V         -9.1960    -0.9030     1.9110 h1         1 F0E       0.048950
    105 H2Y         -9.3080    -1.4810    -1.8180 h1         1 F0E       0.048950
    106 H2X         -9.3770    -0.1780    -0.6350 h1         1 F0E       0.048950
    107 H30         -7.1900    -0.2990    -1.6830 h1         1 F0E       0.061950
    108 H2Z         -7.0060    -1.9940    -1.2610 h1         1 F0E       0.061950
    109 H31        -10.9800    -2.6940     2.2590 ha         1 F0E       0.113500
    110 H32        -13.1150    -3.7880     2.1210 ha         1 F0E       0.132000
    111 H33        -12.7960    -3.9430    -2.1400 ha         1 F0E       0.132000
    112 H34        -10.6380    -2.8890    -2.0350 ha         1 F0E       0.113500
    113 H35        -16.7520    -5.6990     1.9130 h4         1 F0E       0.023100
    114 H36        -17.7880    -6.3330    -0.2910 ha         1 F0E       0.135000
    115 H37        -16.4750    -5.7510    -2.3560 h4         1 F0E       0.023100
    116 C0W         11.6080    -2.9640    -0.3500 c          1 F0E       0.643100
    117 N0B         -1.9790     5.8300    -0.4450 ns         1 F0E      -0.149000
@<TRIPOS>BOND
     1     1     2 1   
     2     1    40 1   
     3     1    61 1   
     4     1    62 1   
     5     2     3 1   
     6     2    63 1   
     7     2    64 1   
     8     3     4 1   
     9     3    65 1   
    10     3    66 1   
    11     4     5 1   
    12     4    67 1   
    13     4    68 1   
    14     5     6 1   
    15     5    69 1   
    16     5    70 1   
    17     6     7 1   
    18     6    71 1   
    19     6    72 1   
    20     7    40 1   
    21     7    73 1   
    22     7    74 1   
    23     8     9 2   
    24     9    10 1   
    25     9    43 1   
    26    10    11 1   
    27    10    75 1   
    28    10    76 1   
    29    11    12 1   
    30    11    15 1   
    31    12    13 1   
    32    12    77 1   
    33    12    78 1   
    34    13    14 1   
    35    13    79 1   
    36    13    80 1   
    37    14    15 1   
    38    14    16 1   
    39    14    81 1   
    40    15    82 1   
    41    15    83 1   
    42    16    17 2   
    43    16   117 1   
    44    18    19 ar  
    45    18    42 ar  
    46    18   117 1   
    47    19    20 ar  
    48    19    85 1   
    49    20    21 ar  
    50    20    86 1   
    51    21    22 1   
    52    21    41 ar  
    53    22    23 1   
    54    22    87 1   
    55    23    24 2   
    56    24    25 1   
    57    24    41 1   
    58    25    26 ar  
    59    25    30 ar  
    60    26    27 ar  
    61    26    88 1   
    62    27    28 ar  
    63    27    89 1   
    64    28    29 ar  
    65    29    30 ar  
    66    29    31 1   
    67    30    90 1   
    68    31    32 2   
    69    31    33 1   
    70    33    34 1   
    71    33    91 1   
    72    34    35 1   
    73    34    92 1   
    74    34    93 1   
    75    35    36 1   
    76    35    94 1   
    77    35    95 1   
    78    36    37 1   
    79    36    96 1   
    80    36    97 1   
    81    37    98 1   
    82    37   116 1   
    83    38   116 2   
    84    39    40 1   
    85    39   116 1   
    86    40    99 1   
    87    41    42 ar  
    88    42   100 1   
    89    43    44 1   
    90    43    48 1   
    91    44    45 1   
    92    44   101 1   
    93    44   102 1   
    94    45    46 1   
    95    45   103 1   
    96    45   104 1   
    97    46    47 1   
    98    46    49 1   
    99    47    48 1   
   100    47   105 1   
   101    47   106 1   
   102    48   107 1   
   103    48   108 1   
   104    49    50 ar  
   105    49    54 ar  
   106    50    51 ar  
   107    50   109 1   
   108    51    52 ar  
   109    51   110 1   
   110    52    53 ar  
   111    52    55 1   
   112    53    54 ar  
   113    53   111 1   
   114    54   112 1   
   115    55    56 ar  
   116    55    60 ar  
   117    56    57 ar  
   118    57    58 ar  
   119    57   113 1   
   120    58    59 ar  
   121    58   114 1   
   122    59    60 ar  
   123    59   115 1   
   124    84   117 1   
@<TRIPOS>SUBSTRUCTURE
     1 F0E         1 TEMP              0 ****  ****    0 ROOT
