@<TRIPOS>MOLECULE
F0F
   40    41     1     0     0
SMALL
No Charge or Current Charge


@<TRIPOS>ATOM
      1 C10         -7.4340    -1.6920    29.7620 cx         1 F0F      -0.073700
      2 N12         -5.9290    -2.5890    31.5080 n8         1 F0F      -0.997200
      3 C13         -9.1300    -0.4920    28.2040 ca         1 F0F      -0.053300
      4 C14        -10.0650     0.2330    28.9700 ca         1 F0F      -0.099500
      5 C15        -10.6040     1.4370    28.4860 ca         1 F0F      -0.112500
      6 C16        -10.2110     1.9300    27.2310 ca         1 F0F      -0.107000
      7 C17         -9.2760     1.2180    26.4620 ca         1 F0F      -0.112500
      8 C18         -8.7360     0.0140    26.9470 ca         1 F0F      -0.099500
      9 C1         -10.6610    -2.4990    25.5940 c3         1 F0F      -0.112100
     10 C2          -9.6810    -3.3230    26.4490 c3         1 F0F       0.105000
     11 C4         -11.1070    -4.6740    28.0450 c3         1 F0F       0.105000
     12 C5         -12.5820    -4.2300    28.0800 c3         1 F0F      -0.112100
     13 C8          -8.5710    -1.7850    28.7460 cx         1 F0F      -0.150700
     14 C9          -7.1660    -2.2720    28.3990 cx         1 F0F      -0.124400
     15 C11         -7.3180    -2.5670    31.0080 c3         1 F0F       0.176800
     16 N3         -10.1540    -3.5550    27.8400 n          1 F0F      -0.403800
     17 O7         -10.1230    -3.0460    30.0880 o          1 F0F      -0.608100
     18 H1          -7.0540    -0.6890    29.9460 hc         1 F0F       0.097700
     19 H2          -5.8690    -3.2420    32.2980 hn         1 F0F       0.391000
     20 H3          -5.3270    -3.0140    30.7930 hn         1 F0F       0.391000
     21 H5         -10.3750    -0.1380    29.9440 ha         1 F0F       0.119500
     22 H6         -11.3270     1.9880    29.0840 ha         1 F0F       0.113000
     23 H7         -10.6290     2.8610    26.8560 ha         1 F0F       0.113000
     24 H8          -8.9700     1.5980    25.4900 ha         1 F0F       0.113000
     25 H9          -8.0180    -0.5260    26.3340 ha         1 F0F       0.119500
     26 H10        -10.1990    -2.2410    24.6340 hc         1 F0F       0.042867
     27 H11        -11.5720    -3.0700    25.3850 hc         1 F0F       0.042867
     28 H12        -10.9410    -1.5700    26.1030 hc         1 F0F       0.042867
     29 H13         -9.5250    -4.2940    25.9620 h1         1 F0F       0.047200
     30 H14         -8.7080    -2.8240    26.4400 h1         1 F0F       0.047200
     31 H15        -10.8650    -5.1920    28.9820 h1         1 F0F       0.047200
     32 H16        -10.9810    -5.4070    27.2380 h1         1 F0F       0.047200
     33 H17        -13.2320    -5.0950    28.2610 hc         1 F0F       0.042867
     34 H18        -12.7480    -3.5030    28.8830 hc         1 F0F       0.042867
     35 H19        -12.8830    -3.7720    27.1320 hc         1 F0F       0.042867
     36 H20         -7.0070    -3.3450    28.3240 hc         1 F0F       0.074700
     37 H21         -6.5520    -1.6810    27.7240 hc         1 F0F       0.074700
     38 H22         -7.9760    -2.1750    31.7960 h1         1 F0F       0.044200
     39 H23         -7.6240    -3.5980    30.7800 h1         1 F0F       0.044200
     40 C6          -9.6630    -2.8410    28.9700 c          1 F0F       0.637100
@<TRIPOS>BOND
     1     1    13 1   
     2     1    14 1   
     3     1    15 1   
     4     1    18 1   
     5     2    15 1   
     6     2    19 1   
     7     2    20 1   
     8     3     4 ar  
     9     3     8 ar  
    10     3    13 1   
    11     4     5 ar  
    12     4    21 1   
    13     5     6 ar  
    14     5    22 1   
    15     6     7 ar  
    16     6    23 1   
    17     7     8 ar  
    18     7    24 1   
    19     8    25 1   
    20     9    10 1   
    21     9    26 1   
    22     9    27 1   
    23     9    28 1   
    24    10    16 1   
    25    10    29 1   
    26    10    30 1   
    27    11    12 1   
    28    11    16 1   
    29    11    31 1   
    30    11    32 1   
    31    12    33 1   
    32    12    34 1   
    33    12    35 1   
    34    13    14 1   
    35    13    40 1   
    36    14    36 1   
    37    14    37 1   
    38    15    38 1   
    39    15    39 1   
    40    16    40 1   
    41    17    40 2   
@<TRIPOS>SUBSTRUCTURE
     1 F0F         1 TEMP              0 ****  ****    0 ROOT
