@<TRIPOS>MOLECULE
F0F
   40    41     1     0     0
SMALL
bcc


@<TRIPOS>ATOM
      1 C10         -7.4660    -1.7190    29.7630 cx         1 F0F      -0.073700
      2 N12         -5.9230    -2.5680    31.4090 n8         1 F0F      -0.886800
      3 C13         -9.1450    -0.5450    28.2160 ca         1 F0F      -0.053300
      4 C14        -10.1560     0.0940    28.9350 ca         1 F0F      -0.117500
      5 C15        -10.7260     1.2690    28.4690 ca         1 F0F      -0.130500
      6 C16        -10.2930     1.8300    27.2730 ca         1 F0F      -0.125000
      7 C17         -9.2860     1.2040    26.5530 ca         1 F0F      -0.130500
      8 C18         -8.7200     0.0240    27.0200 ca         1 F0F      -0.117500
      9 C1         -10.5880    -2.7160    25.5550 c3         1 F0F      -0.112100
     10 C2          -9.5800    -3.3610    26.4930 c3         1 F0F       0.105000
     11 C4         -11.1580    -4.5120    28.0150 c3         1 F0F       0.105000
     12 C5         -12.5400    -3.8910    28.1730 c3         1 F0F      -0.112100
     13 C8          -8.5680    -1.8260    28.7440 cx         1 F0F      -0.150700
     14 C9          -7.1640    -2.2210    28.3860 cx         1 F0F      -0.124400
     15 C11         -7.3040    -2.6340    30.9490 c3         1 F0F       0.176800
     16 N3         -10.0770    -3.5470    27.8470 n          1 F0F      -0.470800
     17 O7         -10.1370    -3.0610    30.0400 o          1 F0F      -0.608100
     18 H1          -7.1560    -0.6980    29.9670 hc         1 F0F       0.097700
     19 H2          -5.8160    -3.1470    32.2320 hn         1 F0F       0.335800
     20 H3          -5.3200    -2.9790    30.7060 hn         1 F0F       0.335800
     21 H5         -10.4970    -0.3320    29.8710 ha         1 F0F       0.137500
     22 H6         -11.5090     1.7490    29.0420 ha         1 F0F       0.131000
     23 H7         -10.7360     2.7470    26.9090 ha         1 F0F       0.131000
     24 H8          -8.9410     1.6310    25.6200 ha         1 F0F       0.131000
     25 H9          -7.9440    -0.4530    26.4340 ha         1 F0F       0.137500
     26 H10        -10.1310    -2.5700    24.5760 hc         1 F0F       0.042867
     27 H11        -11.4720    -3.3390    25.4140 hc         1 F0F       0.042867
     28 H12        -10.9080    -1.7430    25.9270 hc         1 F0F       0.042867
     29 H13         -9.2900    -4.3390    26.1000 h1         1 F0F       0.047200
     30 H14         -8.6750    -2.7640    26.5190 h1         1 F0F       0.047200
     31 H15        -10.9410    -5.1500    28.8730 h1         1 F0F       0.047200
     32 H16        -11.1440    -5.1580    27.1370 h1         1 F0F       0.047200
     33 H17        -13.2860    -4.6810    28.2660 hc         1 F0F       0.042867
     34 H18        -12.6000    -3.2700    29.0650 hc         1 F0F       0.042867
     35 H19        -12.8080    -3.2790    27.3120 hc         1 F0F       0.042867
     36 H20         -6.9620    -3.2820    28.2820 hc         1 F0F       0.074700
     37 H21         -6.6010    -1.5990    27.7020 hc         1 F0F       0.074700
     38 H22         -7.9520    -2.3010    31.7630 h1         1 F0F       0.044200
     39 H23         -7.6270    -3.6490    30.6870 h1         1 F0F       0.044200
     40 C6          -9.6440    -2.8760    28.9330 c          1 F0F       0.704100
@<TRIPOS>BOND
     1     1    13 1   
     2     1    14 1   
     3     1    15 1   
     4     1    18 1   
     5     2    15 1   
     6     2    19 1   
     7     2    20 1   
     8     3     4 ar  
     9     3     8 ar  
    10     3    13 1   
    11     4     5 ar  
    12     4    21 1   
    13     5     6 ar  
    14     5    22 1   
    15     6     7 ar  
    16     6    23 1   
    17     7     8 ar  
    18     7    24 1   
    19     8    25 1   
    20     9    10 1   
    21     9    26 1   
    22     9    27 1   
    23     9    28 1   
    24    10    16 1   
    25    10    29 1   
    26    10    30 1   
    27    11    12 1   
    28    11    16 1   
    29    11    31 1   
    30    11    32 1   
    31    12    33 1   
    32    12    34 1   
    33    12    35 1   
    34    13    14 1   
    35    13    40 1   
    36    14    36 1   
    37    14    37 1   
    38    15    38 1   
    39    15    39 1   
    40    16    40 1   
    41    17    40 2   
@<TRIPOS>SUBSTRUCTURE
     1 F0F         1 TEMP              0 ****  ****    0 ROOT
