@<TRIPOS>MOLECULE
F0H
   81    85     1     0     0
SMALL
abcg2


@<TRIPOS>ATOM
      1 C2          -9.4050     1.7860    -1.3800 c3         1 F0H       0.150600
      2 C3          -8.7130     0.4310    -1.3000 c3         1 F0H       0.148000
      3 C5          -8.7230    -0.3520     1.1140 ca         1 F0H      -0.087000
      4 C6          -9.2780    -1.0960     2.1450 ca         1 F0H      -0.079000
      5 C7         -10.3880    -1.8890     1.9050 ca         1 F0H       0.074000
      6 C11        -10.3730    -1.2020    -0.4030 ca         1 F0H      -0.130000
      7 C13         -6.5850     1.6090    -0.8360 cc         1 F0H      -0.036400
      8 C14         -5.2320     1.6720    -0.7990 cd         1 F0H      -0.275000
      9 C15         -4.4810     0.5420    -1.2110 cd         1 F0H      -0.058800
     10 C16         -5.1420    -0.5800    -1.6100 cc         1 F0H      -0.297200
     11 C19         -3.0010     0.6020    -1.1860 ca         1 F0H       0.216800
     12 C21         -0.8360    -0.1280    -1.7580 ca         1 F0H       0.146900
     13 C23         -1.1380     1.6680    -0.4390 ca         1 F0H       0.386900
     14 C25          0.6080     3.1400     0.5800 ca         1 F0H       0.357000
     15 C26          0.7460     4.2550     1.4150 ca         1 F0H      -0.230000
     16 C27          2.0100     4.7260     1.7080 ca         1 F0H       0.364900
     17 C31          5.2170     2.0780    -0.5180 c1         1 F0H      -0.106100
     18 C35          9.3280    -0.4950     0.1100 c          1 F0H       0.644100
     19 C38         11.4140    -1.6580    -0.0780 c3         1 F0H       0.201300
     20 C39         12.6620    -1.3570    -0.9160 c3         1 F0H      -0.078400
     21 C40         13.9600    -1.1480    -0.1310 c3         1 F0H      -0.066400
     22 C42         13.8760    -2.9370     1.6820 c2         1 F0H      -0.220200
     23 C43         12.7850    -3.6960     1.6220 c2         1 F0H      -0.214200
     24 O1          -9.3990     2.4250    -0.1300 oh         1 F0H      -0.658000
     25 C4          -9.2620    -0.4020    -0.1660 ca         1 F0H      -0.055300
     26 CL8        -11.1040    -2.8260     3.1610 cl         1 F0H      -0.170000
     27 C9         -10.9260    -1.9290     0.6300 ca         1 F0H       0.180000
     28 F10        -11.9940    -2.6950     0.3990 f          1 F0H      -0.162000
     29 N12         -7.2490     0.4980    -1.2480 n          1 F0H      -0.269000
     30 C17         -6.5770    -0.6590    -1.6390 c          1 F0H       0.546200
     31 O18         -7.2050    -1.6570    -1.9800 o          1 F0H      -0.552000
     32 C20         -2.2000    -0.3080    -1.8720 ca         1 F0H      -0.247000
     33 N22         -0.2900     0.8500    -1.0460 nb         1 F0H      -0.218000
     34 N24         -0.6710     2.7100     0.3140 nu         1 F0H      -0.926900
     35 N28          3.1330     4.1900     1.2450 nb         1 F0H      -0.668000
     36 C29          3.0000     3.1310     0.4470 ca         1 F0H       0.494000
     37 C30          4.2070     2.5560    -0.0700 cg         1 F0H      -0.212000
     38 C32          6.4370     1.5010    -1.0600 c3         1 F0H      -0.008300
     39 C33          7.2090     0.7060    -0.0090 c3         1 F0H       0.126000
     40 N34          8.4120     0.1780    -0.6090 ns         1 F0H      -0.513900
     41 O36          9.2460    -0.6950     1.3060 o          1 F0H      -0.543000
     42 O37         10.3360    -0.8990    -0.6660 os         1 F0H      -0.480100
     43 C41         14.6110    -2.3890     0.4910 c3         1 F0H      -0.042200
     44 C44         12.1140    -4.0920     0.3440 c3         1 F0H      -0.039200
     45 C45         10.9950    -3.1250    -0.0510 c3         1 F0H      -0.093400
     46 C46          1.7800     2.5650     0.0850 ca         1 F0H      -0.173000
     47 N47         -2.4660     1.5850    -0.4800 nb         1 F0H      -0.241000
     48 H49         -8.9240     2.3870    -2.1620 h1         1 F0H       0.036200
     49 H50        -10.4270     1.5850    -1.7210 h1         1 F0H       0.036200
     50 H51         -8.9590    -0.0670    -2.2400 h1         1 F0H       0.092700
     51 H52         -7.8580     0.2590     1.3300 ha         1 F0H       0.127000
     52 H53         -8.8520    -1.0540     3.1380 ha         1 F0H       0.133000
     53 H54        -10.8120    -1.2680    -1.3910 ha         1 F0H       0.133000
     54 H55         -7.1870     2.4450    -0.5180 h4         1 F0H       0.218000
     55 H56         -4.7510     2.5750    -0.4570 ha         1 F0H       0.218000
     56 H57         -4.6200    -1.4770    -1.9130 ha         1 F0H       0.210000
     57 H59         -0.1480    -0.7970    -2.2620 h4         1 F0H       0.030100
     58 H61         -0.1230     4.7500     1.8300 ha         1 F0H       0.122000
     59 H62          2.1180     5.5880     2.3550 h4         1 F0H       0.022100
     60 H68         11.5720    -1.2980     0.9420 h1         1 F0H       0.074700
     61 H69         12.8030    -2.1280    -1.6810 hc         1 F0H       0.050700
     62 H70         12.4760    -0.4300    -1.4620 hc         1 F0H       0.050700
     63 H72         14.6840    -0.7030    -0.8180 hc         1 F0H       0.041700
     64 H71         13.7870    -0.3990     0.6480 hc         1 F0H       0.041700
     65 H75         14.2590    -2.6580     2.6590 ha         1 F0H       0.170000
     66 H76         12.3100    -4.0080     2.5470 ha         1 F0H       0.175000
     67 H48         -9.8300     3.2800    -0.2260 ho         1 F0H       0.453000
     68 H58         -2.6010    -1.1090    -2.4740 ha         1 F0H       0.144000
     69 H60         -1.4090     3.2560     0.7350 hn         1 F0H       0.514000
     70 H64          6.1830     0.8550    -1.9050 hc         1 F0H       0.063200
     71 H63          7.0690     2.3030    -1.4530 hc         1 F0H       0.063200
     72 H65          7.4550     1.3570     0.8320 h1         1 F0H       0.060700
     73 H66          6.5780    -0.1000     0.3770 h1         1 F0H       0.060700
     74 H67          8.5490     0.2790    -1.6020 hn         1 F0H       0.325500
     75 H74         14.7250    -3.1570    -0.2800 hc         1 F0H       0.043200
     76 H73         15.6240    -2.1200     0.7970 hc         1 F0H       0.043200
     77 H77         12.8460    -4.1520    -0.4660 hc         1 F0H       0.045200
     78 H78         11.6820    -5.0900     0.4380 hc         1 F0H       0.045200
     79 H79         10.1580    -3.2380     0.6420 hc         1 F0H       0.054200
     80 H80         10.6280    -3.4020    -1.0440 hc         1 F0H       0.054200
     81 H81          1.7560     1.7080    -0.5650 ha         1 F0H       0.163000
@<TRIPOS>BOND
     1     1     2 1   
     2     1    24 1   
     3     1    48 1   
     4     1    49 1   
     5     2    25 1   
     6     2    29 1   
     7     2    50 1   
     8     3     4 ar  
     9     3    25 ar  
    10     3    51 1   
    11     4     5 ar  
    12     4    52 1   
    13     5    26 1   
    14     5    27 ar  
    15     6    25 ar  
    16     6    27 ar  
    17     6    53 1   
    18     7     8 2   
    19     7    29 1   
    20     7    54 1   
    21     8     9 1   
    22     8    55 1   
    23     9    10 2   
    24     9    11 1   
    25    10    30 1   
    26    10    56 1   
    27    11    32 ar  
    28    11    47 ar  
    29    12    32 ar  
    30    12    33 ar  
    31    12    57 1   
    32    13    33 ar  
    33    13    34 1   
    34    13    47 ar  
    35    14    15 ar  
    36    14    34 1   
    37    14    46 ar  
    38    15    16 ar  
    39    15    58 1   
    40    16    35 ar  
    41    16    59 1   
    42    17    37 3   
    43    17    38 1   
    44    18    40 1   
    45    18    41 2   
    46    18    42 1   
    47    19    20 1   
    48    19    42 1   
    49    19    45 1   
    50    19    60 1   
    51    20    21 1   
    52    20    61 1   
    53    20    62 1   
    54    21    43 1   
    55    21    63 1   
    56    21    64 1   
    57    22    23 2   
    58    22    43 1   
    59    22    65 1   
    60    23    44 1   
    61    23    66 1   
    62    24    67 1   
    63    27    28 1   
    64    29    30 1   
    65    30    31 2   
    66    32    68 1   
    67    34    69 1   
    68    35    36 ar  
    69    36    37 1   
    70    36    46 ar  
    71    38    39 1   
    72    38    70 1   
    73    38    71 1   
    74    39    40 1   
    75    39    72 1   
    76    39    73 1   
    77    40    74 1   
    78    43    75 1   
    79    43    76 1   
    80    44    45 1   
    81    44    77 1   
    82    44    78 1   
    83    45    79 1   
    84    45    80 1   
    85    46    81 1   
@<TRIPOS>SUBSTRUCTURE
     1 F0H         1 TEMP              0 ****  ****    0 ROOT
