@<TRIPOS>MOLECULE
F0H
   81    85     1     0     0
SMALL
No Charge or Current Charge


@<TRIPOS>ATOM
      1 C2          -9.3370     1.7210    -2.1340 c3         1 F0H       0.150600
      2 C3          -8.7310     0.3630    -1.6570 c3         1 F0H       0.148000
      3 C5          -9.3360     0.0680     0.8170 ca         1 F0H      -0.087000
      4 C6         -10.1130    -0.5050     1.8390 ca         1 F0H      -0.079000
      5 C7         -11.1440    -1.4040     1.5200 ca         1 F0H       0.074000
      6 C11        -10.6190    -1.1550    -0.8500 ca         1 F0H      -0.130000
      7 C13         -6.5250     1.4880    -1.0510 cc         1 F0H      -0.036400
      8 C14         -5.1860     1.4500    -0.7180 cd         1 F0H      -0.275000
      9 C15         -4.4680     0.1970    -0.6430 cd         1 F0H      -0.058800
     10 C16         -5.2230    -0.9310    -0.9250 cc         1 F0H      -0.297200
     11 C19         -3.0210     0.1370    -0.2830 ca         1 F0H       0.216800
     12 C21         -0.9360    -1.0040     0.1520 ca         1 F0H       0.146900
     13 C23         -1.0960     1.2710     0.2960 ca         1 F0H       0.386900
     14 C25          0.7640     2.9630     0.8380 ca         1 F0H       0.357000
     15 C26          0.9250     4.1580     1.5420 ca         1 F0H      -0.230000
     16 C27          2.2170     4.6300     1.8010 ca         1 F0H       0.364900
     17 C31          5.3780     1.6260    -0.1060 c1         1 F0H      -0.106100
     18 C35          9.7310     0.2030    -0.0770 c          1 F0H       0.644100
     19 C38         11.6620    -1.2300    -0.3240 c3         1 F0H       0.201300
     20 C39         13.0800    -1.0210    -0.9290 c3         1 F0H      -0.078400
     21 C40         14.2670    -1.3150     0.0320 c3         1 F0H      -0.066400
     22 C42         13.4950    -3.4280     1.2810 c2         1 F0H      -0.220200
     23 C43         12.2890    -3.8880     0.9140 c2         1 F0H      -0.214200
     24 O1          -9.5330     2.6580    -1.0570 oh         1 F0H      -0.658000
     25 C4          -9.5820    -0.2520    -0.5360 ca         1 F0H      -0.055300
     26 Cl8        -12.1090    -2.1140     2.8140 cl         1 F0H      -0.170000
     27 C9         -11.3940    -1.7270     0.1720 ca         1 F0H       0.180000
     28 F10        -12.3840    -2.5920    -0.1510 f          1 F0H      -0.162000
     29 N12         -7.2610     0.3340    -1.3430 n          1 F0H      -0.269000
     30 C17         -6.6460    -0.9340    -1.2860 c          1 F0H       0.546200
     31 O18         -7.2390    -1.9770    -1.5290 o          1 F0H      -0.552000
     32 C20         -2.2920    -1.0710    -0.2020 ca         1 F0H      -0.247000
     33 N22         -0.3320     0.1700     0.4070 nb         1 F0H      -0.218000
     34 N24         -0.5310     2.5090     0.5770 nu         1 F0H      -0.926900
     35 N28          3.3280     3.9840     1.3910 nb         1 F0H      -0.668000
     36 C29          3.1640     2.8380     0.6980 ca         1 F0H       0.494000
     37 C30          4.3660     2.1870     0.2650 cg         1 F0H      -0.212000
     38 C32          6.6270     0.9810    -0.5310 c3         1 F0H      -0.008300
     39 C33          7.8630     1.8660    -0.2670 c3         1 F0H       0.126000
     40 N34          9.1100     1.2380    -0.7130 ns         1 F0H      -0.513900
     41 O36          9.3560    -0.3040     0.9680 o          1 F0H      -0.543000
     42 O37         10.8560    -0.1210    -0.7740 os         1 F0H      -0.480100
     43 C41         14.5320    -2.8020     0.3650 c3         1 F0H      -0.042200
     44 C44         11.7230    -3.8450    -0.4900 c3         1 F0H      -0.039200
     45 C45         10.9450    -2.5420    -0.7650 c3         1 F0H      -0.093400
     46 C46          1.9110     2.2950     0.3970 ca         1 F0H      -0.173000
     47 N47         -2.4000     1.3100    -0.0230 nb         1 F0H      -0.241000
     48 H49         -8.6870     2.1520    -2.9070 h1         1 F0H       0.036200
     49 H50        -10.3030     1.5090    -2.6110 h1         1 F0H       0.036200
     50 H51         -8.8460    -0.2940    -2.5290 h1         1 F0H       0.092700
     51 H52         -8.5440     0.7660     1.0770 ha         1 F0H       0.127000
     52 H53         -9.9170    -0.2510     2.8780 ha         1 F0H       0.133000
     53 H54        -10.8260    -1.4180    -1.8840 ha         1 F0H       0.133000
     54 H55         -7.0960     2.4070    -1.1030 h4         1 F0H       0.218000
     55 H56         -4.6820     2.3900    -0.5070 ha         1 F0H       0.218000
     56 H57         -4.8030    -1.9270    -0.9020 ha         1 F0H       0.210000
     57 H59         -0.3240    -1.9010     0.2350 h4         1 F0H       0.030100
     58 H61          0.0670     4.7190     1.8980 ha         1 F0H       0.122000
     59 H62          2.3700     5.5550     2.3550 h4         1 F0H       0.022100
     60 H68         11.7520    -1.2090     0.7720 h1         1 F0H       0.074700
     61 H69         13.1910    -1.6130    -1.8450 hc         1 F0H       0.050700
     62 H70         13.1770     0.0260    -1.2410 hc         1 F0H       0.050700
     63 H72         15.1760    -0.9140    -0.4330 hc         1 F0H       0.041700
     64 H71         14.1320    -0.7520     0.9640 hc         1 F0H       0.041700
     65 H75         13.8080    -3.4980     2.3260 ha         1 F0H       0.170000
     66 H76         11.6190    -4.3280     1.6570 ha         1 F0H       0.175000
     67 H48        -10.0270     3.4240    -1.4250 ho         1 F0H       0.453000
     68 H58         -2.7400    -2.0380    -0.3980 ha         1 F0H       0.144000
     69 H60         -1.2390     3.2360     0.6790 hn         1 F0H       0.514000
     70 H64          6.7320     0.0270    -0.0000 hc         1 F0H       0.063200
     71 H63          6.5630     0.7510    -1.6020 hc         1 F0H       0.063200
     72 H65          7.7480     2.8220    -0.7960 h1         1 F0H       0.060700
     73 H66          7.9390     2.0820     0.8070 h1         1 F0H       0.060700
     74 H67          9.5540     1.5660    -1.5610 hn         1 F0H       0.325500
     75 H74         14.6200    -3.3690    -0.5700 hc         1 F0H       0.043200
     76 H73         15.5170    -2.8780     0.8420 hc         1 F0H       0.043200
     77 H77         12.5210    -3.9440    -1.2350 hc         1 F0H       0.045200
     78 H78         11.0600    -4.7040    -0.6560 hc         1 F0H       0.045200
     79 H79          9.9820    -2.6110    -0.2450 hc         1 F0H       0.054200
     80 H80         10.7160    -2.4880    -1.8360 hc         1 F0H       0.054200
     81 H81          1.8490     1.3850    -0.1850 ha         1 F0H       0.163000
@<TRIPOS>BOND
     1     1     2 1   
     2     1    24 1   
     3     1    48 1   
     4     1    49 1   
     5     2    25 1   
     6     2    29 1   
     7     2    50 1   
     8     3     4 ar  
     9     3    25 ar  
    10     3    51 1   
    11     4     5 ar  
    12     4    52 1   
    13     5    26 1   
    14     5    27 ar  
    15     6    25 ar  
    16     6    27 ar  
    17     6    53 1   
    18     7     8 2   
    19     7    29 1   
    20     7    54 1   
    21     8     9 1   
    22     8    55 1   
    23     9    10 2   
    24     9    11 1   
    25    10    30 1   
    26    10    56 1   
    27    11    32 ar  
    28    11    47 ar  
    29    12    32 ar  
    30    12    33 ar  
    31    12    57 1   
    32    13    33 ar  
    33    13    34 1   
    34    13    47 ar  
    35    14    15 ar  
    36    14    34 1   
    37    14    46 ar  
    38    15    16 ar  
    39    15    58 1   
    40    16    35 ar  
    41    16    59 1   
    42    17    37 3   
    43    17    38 1   
    44    18    40 1   
    45    18    41 2   
    46    18    42 1   
    47    19    20 1   
    48    19    42 1   
    49    19    45 1   
    50    19    60 1   
    51    20    21 1   
    52    20    61 1   
    53    20    62 1   
    54    21    43 1   
    55    21    63 1   
    56    21    64 1   
    57    22    23 2   
    58    22    43 1   
    59    22    65 1   
    60    23    44 1   
    61    23    66 1   
    62    24    67 1   
    63    27    28 1   
    64    29    30 1   
    65    30    31 2   
    66    32    68 1   
    67    34    69 1   
    68    35    36 ar  
    69    36    37 1   
    70    36    46 ar  
    71    38    39 1   
    72    38    70 1   
    73    38    71 1   
    74    39    40 1   
    75    39    72 1   
    76    39    73 1   
    77    40    74 1   
    78    43    75 1   
    79    43    76 1   
    80    44    45 1   
    81    44    77 1   
    82    44    78 1   
    83    45    79 1   
    84    45    80 1   
    85    46    81 1   
@<TRIPOS>SUBSTRUCTURE
     1 F0H         1 TEMP              0 ****  ****    0 ROOT
