@<TRIPOS>MOLECULE
F0J
   21    21     1     0     0
SMALL
abcg2


@<TRIPOS>ATOM
      1 C1           3.7740     0.2720    -0.0610 c3         1 F0J       0.148900
      2 C3           1.3940    -1.2150     0.0030 ca         1 F0J      -0.194000
      3 C4           0.1710    -1.8890     0.0340 ca         1 F0J      -0.088000
      4 C5          -1.0270    -1.2080     0.0590 ca         1 F0J       0.084100
      5 C6          -1.0050     0.1980     0.0540 ca         1 F0J       0.086100
      6 O1           2.5260     0.9300    -0.0330 os         1 F0J      -0.344100
      7 C2           1.4070     0.1700    -0.0030 ca         1 F0J       0.138100
      8 C7           0.1990     0.8760     0.0220 ca         1 F0J      -0.192000
      9 C8          -2.2980     2.1940     0.0970 c3         1 F0J       0.156900
     10 O3          -2.1930    -1.8970     0.0910 oh         1 F0J      -0.537100
     11 H1           4.5350     1.0470    -0.0860 h1         1 F0J       0.039367
     12 H2           3.9310    -0.3470     0.8270 h1         1 F0J       0.039367
     13 H3           3.8840    -0.3580    -0.9490 h1         1 F0J       0.039367
     14 H4           2.3040    -1.7980    -0.0150 ha         1 F0J       0.121000
     15 H5           0.1630    -2.9720     0.0400 ha         1 F0J       0.129000
     16 H6           0.2320     1.9580     0.0190 ha         1 F0J       0.131000
     17 H7          -3.3540     2.4460     0.1320 h1         1 F0J       0.043033
     18 H8          -1.8030     2.6160     0.9750 h1         1 F0J       0.043033
     19 H9          -1.8590     2.6340    -0.8020 h1         1 F0J       0.043033
     20 H10         -2.9370    -1.2850     0.1080 ho         1 F0J       0.478000
     21 O2          -2.2210     0.7830     0.0820 os         1 F0J      -0.366100
@<TRIPOS>BOND
     1     1     6 1   
     2     1    11 1   
     3     1    12 1   
     4     1    13 1   
     5     2     3 ar  
     6     2     7 ar  
     7     2    14 1   
     8     3     4 ar  
     9     3    15 1   
    10     4     5 ar  
    11     4    10 1   
    12     5     8 ar  
    13     5    21 1   
    14     6     7 1   
    15     7     8 ar  
    16     8    16 1   
    17     9    17 1   
    18     9    18 1   
    19     9    19 1   
    20     9    21 1   
    21    10    20 1   
@<TRIPOS>SUBSTRUCTURE
     1 F0J         1 TEMP              0 ****  ****    0 ROOT
