@<TRIPOS>MOLECULE
F0J
   21    21     1     0     0
SMALL
No Charge or Current Charge


@<TRIPOS>ATOM
      1 C1           3.8640     0.2830    -0.0640 c3         1 F0J       0.148900
      2 C3           1.3960    -1.2510     0.0000 ca         1 F0J      -0.194000
      3 C4           0.1760    -1.9510     0.0320 ca         1 F0J      -0.088000
      4 C5          -1.0380    -1.2470     0.0630 ca         1 F0J       0.084100
      5 C6          -1.0430     0.1640     0.0620 ca         1 F0J       0.086100
      6 O1           2.5640     0.9000    -0.0310 os         1 F0J      -0.344100
      7 C2           1.3990     0.1610    -0.0010 ca         1 F0J       0.138100
      8 C7           0.1830     0.8630     0.0300 ca         1 F0J      -0.192000
      9 C8          -2.3760     2.2480     0.0960 c3         1 F0J       0.156900
     10 O3          -2.2210    -1.9310     0.0940 oh         1 F0J      -0.537100
     11 H1           4.6480     1.0500    -0.0850 h1         1 F0J       0.039367
     12 H2           4.0230    -0.3410     0.8250 h1         1 F0J       0.039367
     13 H3           3.9770    -0.3420    -0.9590 h1         1 F0J       0.039367
     14 H4           2.3210    -1.8190    -0.0230 ha         1 F0J       0.121000
     15 H5           0.1720    -3.0380     0.0330 ha         1 F0J       0.129000
     16 H6           0.2140     1.9480     0.0290 ha         1 F0J       0.131000
     17 H7          -3.4310     2.5490     0.1230 h1         1 F0J       0.043033
     18 H8          -1.8780     2.6760     0.9750 h1         1 F0J       0.043033
     19 H9          -1.9240     2.6750    -0.8090 h1         1 F0J       0.043033
     20 H10         -2.9370    -1.2560     0.1120 ho         1 F0J       0.478000
     21 O2          -2.2670     0.8120     0.0940 os         1 F0J      -0.366100
@<TRIPOS>BOND
     1     1     6 1   
     2     1    11 1   
     3     1    12 1   
     4     1    13 1   
     5     2     3 ar  
     6     2     7 ar  
     7     2    14 1   
     8     3     4 ar  
     9     3    15 1   
    10     4     5 ar  
    11     4    10 1   
    12     5     8 ar  
    13     5    21 1   
    14     6     7 1   
    15     7     8 ar  
    16     8    16 1   
    17     9    17 1   
    18     9    18 1   
    19     9    19 1   
    20     9    21 1   
    21    10    20 1   
@<TRIPOS>SUBSTRUCTURE
     1 F0J         1 TEMP              0 ****  ****    0 ROOT
