@<TRIPOS>MOLECULE
F0K
   67    73     1     0     0
SMALL
No Charge or Current Charge


@<TRIPOS>ATOM
      1 C4           2.8920     2.3560     2.8470 ca         1 F0K      -0.163000
      2 C5           1.6290     1.7570     2.6430 ca         1 F0K       0.158100
      3 C6           1.4970     0.6470     1.7890 ca         1 F0K      -0.188000
      4 C8           4.8650     0.0820     0.4580 c          1 F0K       0.585600
      5 C10          2.6390     0.1720     1.1300 ca         1 F0K      -0.026300
      6 C15          1.9770    -0.6190    -1.0650 cc         1 F0K      -0.142400
      7 C17          2.0720     0.4940    -1.9850 ca         1 F0K      -0.080800
      8 C20          1.7850     2.3580    -4.0430 ca         1 F0K      -0.089000
      9 C21          0.9190     1.2490    -3.9740 ca         1 F0K      -0.146000
     10 C24         -4.9140    -2.0520     0.4390 ca         1 F0K      -0.095800
     11 C26         -3.2560    -3.7870     0.2240 ca         1 F0K      -0.131000
     12 C28         -2.7130    -1.6800     1.3490 ca         1 F0K      -0.116000
     13 O1           0.5280     2.2690     3.2590 oh         1 F0K      -0.532100
     14 O2           6.0560     0.3340     0.3720 o          1 F0K      -0.555000
     15 C3           4.0340     1.8650     2.1790 ca         1 F0K      -0.007000
     16 N7           4.2030    -0.8920    -0.2590 ns         1 F0K      -0.517900
     17 C9           3.8680     0.7700     1.3190 ca         1 F0K      -0.209600
     18 C11          2.7990    -0.9820     0.1670 c5         1 F0K       0.234200
     19 N13          0.3320    -0.7850    -2.6630 na         1 F0K      -0.220700
     20 C14          0.8770    -1.3730    -1.4970 cd         1 F0K      -0.052300
     21 C16          1.0880     0.3400    -2.9210 ca         1 F0K      -0.051200
     22 C18          2.9440     1.5950    -2.0230 ca         1 F0K      -0.046000
     23 C19          2.7920     2.5330    -3.0660 ca         1 F0K      -0.142000
     24 N22          0.0550    -2.4980     0.5520 n7         1 F0K      -0.861400
     25 C23         -4.0200    -1.2470     1.0880 ca         1 F0K      -0.043200
     26 C25         -4.5720    -3.3330    -0.0110 ca         1 F0K      -0.065000
     27 C27         -2.3210    -2.9650     0.9040 ca         1 F0K      -0.122300
     28 C29         -0.8970    -3.4430     1.1580 c3         1 F0K       0.202100
     29 C30         -6.1450    -1.3250     0.3360 cc         1 F0K      -0.241200
     30 C31         -5.9360    -0.0810     0.9230 cd         1 F0K      -0.159100
     31 N32         -4.6060    -0.0270     1.3990 na         1 F0K      -0.090700
     32 C33         -3.8650     1.1320     1.9310 c3         1 F0K       0.065300
     33 C34         -2.8440     1.6750     0.9600 cc         1 F0K       0.201300
     34 C35         -3.0270     1.9250    -0.3730 cd         1 F0K      -0.201000
     35 N36         -1.8080     2.3910    -0.8250 na         1 F0K      -0.163500
     36 C37         -0.9420     2.4000     0.2570 cd         1 F0K       0.390400
     37 N38         -1.5660     1.9710     1.3520 nc         1 F0K      -0.673000
     38 C39         -1.4900     2.8060    -2.1960 c3         1 F0K       0.052900
     39 H1           2.9820     3.2130     3.5110 ha         1 F0K       0.130000
     40 H2           0.5360     0.1670     1.6350 ha         1 F0K       0.136000
     41 H3           1.6760     3.0840    -4.8460 ha         1 F0K       0.108000
     42 H4           0.1350     1.1090    -4.7150 ha         1 F0K       0.102000
     43 H6          -2.0140    -1.0370     1.8790 ha         1 F0K       0.133000
     44 H7          -0.2630     2.0410     2.7070 ho         1 F0K       0.468000
     45 H8           5.0090     2.3300     2.3150 ha         1 F0K       0.134000
     46 H9           4.6970    -1.4960    -0.9020 hn         1 F0K       0.331500
     47 H10          2.5450    -1.9530     0.6100 h1         1 F0K       0.078700
     48 H13         -0.4640    -1.1170    -3.1950 hn         1 F0K       0.353000
     49 H14          3.7170     1.7360    -1.2760 ha         1 F0K       0.128000
     50 H15          3.4540     3.3940    -3.1190 ha         1 F0K       0.115000
     51 H16         -0.3300    -1.5640     0.7150 hn         1 F0K       0.419000
     52 H18         -5.2960    -3.9570    -0.5310 ha         1 F0K       0.115000
     53 H19         -0.7530    -4.4620     0.7700 h1         1 F0K       0.059200
     54 H20         -0.7440    -3.4860     2.2460 h1         1 F0K       0.059200
     55 H21         -7.0700    -1.6600    -0.1290 ha         1 F0K       0.205000
     56 H22         -6.6170     0.7610     1.0220 h4         1 F0K       0.208000
     57 H23         -4.5800     1.9270     2.1740 h1         1 F0K       0.067700
     58 H24         -3.3670     0.8330     2.8610 h1         1 F0K       0.067700
     59 H25         -3.9000     1.8000    -1.0020 h4         1 F0K       0.161000
     60 H26          0.0890     2.7240     0.1720 h5         1 F0K       0.067100
     61 H27         -2.1370     3.6430    -2.4860 h1         1 F0K       0.058367
     62 H28         -0.4410     3.1220    -2.2570 h1         1 F0K       0.058367
     63 H29         -1.6570     1.9650    -2.8810 h1         1 F0K       0.058367
     64 C12          0.2640    -2.6260    -0.9010 c3         1 F0K       0.209000
     65 H5          -2.9620    -4.7760    -0.1210 ha         1 F0K       0.108000
     66 H11         -0.6960    -2.8060    -1.4060 h1         1 F0K       0.051200
     67 H12          0.9120    -3.4850    -1.1230 h1         1 F0K       0.051200
@<TRIPOS>BOND
     1     1     2 ar  
     2     1    15 ar  
     3     1    39 1   
     4     2     3 ar  
     5     2    13 1   
     6     3     5 ar  
     7     3    40 1   
     8     4    14 2   
     9     4    16 1   
    10     4    17 1   
    11     5    17 ar  
    12     5    18 1   
    13     6     7 1   
    14     6    18 1   
    15     6    20 2   
    16     7    21 ar  
    17     7    22 ar  
    18     8     9 ar  
    19     8    23 ar  
    20     8    41 1   
    21     9    21 ar  
    22     9    42 1   
    23    10    25 ar  
    24    10    26 ar  
    25    10    29 1   
    26    11    26 ar  
    27    11    27 ar  
    28    11    65 1   
    29    12    25 ar  
    30    12    27 ar  
    31    12    43 1   
    32    13    44 1   
    33    15    17 ar  
    34    15    45 1   
    35    16    18 1   
    36    16    46 1   
    37    18    47 1   
    38    19    20 1   
    39    19    21 1   
    40    19    48 1   
    41    20    64 1   
    42    22    23 ar  
    43    22    49 1   
    44    23    50 1   
    45    24    28 1   
    46    24    51 1   
    47    24    64 1   
    48    25    31 1   
    49    26    52 1   
    50    27    28 1   
    51    28    53 1   
    52    28    54 1   
    53    29    30 2   
    54    29    55 1   
    55    30    31 1   
    56    30    56 1   
    57    31    32 1   
    58    32    33 1   
    59    32    57 1   
    60    32    58 1   
    61    33    34 2   
    62    33    37 1   
    63    34    35 1   
    64    34    59 1   
    65    35    36 1   
    66    35    38 1   
    67    36    37 2   
    68    36    60 1   
    69    38    61 1   
    70    38    62 1   
    71    38    63 1   
    72    64    66 1   
    73    64    67 1   
@<TRIPOS>SUBSTRUCTURE
     1 F0K         1 TEMP              0 ****  ****    0 ROOT
