@<TRIPOS>MOLECULE
F0K
   67    73     1     0     0
SMALL
bcc


@<TRIPOS>ATOM
      1 C4           4.9160     1.3070     3.0710 ca         1 F0K      -0.181000
      2 C5           3.5320     1.0940     3.1620 ca         1 F0K       0.158100
      3 C6           2.8580     0.3400     2.2010 ca         1 F0K      -0.206000
      4 C8           5.4750    -0.6820    -0.1240 c          1 F0K       0.728100
      5 C10          3.6010    -0.1830     1.1620 ca         1 F0K      -0.026300
      6 C15          2.1020    -0.3600    -0.8520 cc         1 F0K      -0.142400
      7 C17          2.2550     0.7920    -1.6900 ca         1 F0K      -0.080800
      8 C20          1.8410     2.9050    -3.4640 ca         1 F0K      -0.107000
      9 C21          0.7720     2.0820    -3.1680 ca         1 F0K      -0.164000
     10 C24         -4.8860    -2.7420     0.3140 ca         1 F0K      -0.095800
     11 C26         -2.8210    -3.7680     0.9660 ca         1 F0K      -0.149000
     12 C28         -3.1010    -1.3960     1.3300 ca         1 F0K      -0.134000
     13 O1           2.8990     1.6450     4.2100 oh         1 F0K      -0.493100
     14 O2           6.6260    -0.7400    -0.5250 o          1 F0K      -0.630500
     15 C3           5.6410     0.7650     2.0260 ca         1 F0K      -0.025000
     16 N7           4.3890    -1.2530    -0.6970 ns         1 F0K      -0.584900
     17 C9           4.9670     0.0160     1.0720 ca         1 F0K      -0.209600
     18 C11          3.1360    -1.0220    -0.0020 c5         1 F0K       0.234200
     19 N13          0.1300     0.0950    -1.7910 na         1 F0K      -0.170400
     20 C14          0.7920    -0.7480    -0.9420 cd         1 F0K      -0.052300
     21 C16          0.9920     1.0380    -2.2720 ca         1 F0K      -0.051200
     22 C18          3.3190     1.6460    -2.0070 ca         1 F0K      -0.064000
     23 C19          3.1020     2.6910    -2.8840 ca         1 F0K      -0.160000
     24 N22         -0.0660    -1.4780     1.1940 n7         1 F0K      -0.806200
     25 C23         -4.3710    -1.5090     0.7750 ca         1 F0K      -0.043200
     26 C25         -4.0880    -3.8850     0.4260 ca         1 F0K      -0.083000
     27 C27         -2.3180    -2.5350     1.4170 ca         1 F0K      -0.122300
     28 C29         -0.9030    -2.4070     1.9380 c3         1 F0K       0.202100
     29 C30         -6.1950    -2.4740    -0.1970 cc         1 F0K      -0.191200
     30 C31         -6.4090    -1.1360    -0.0300 cd         1 F0K      -0.109100
     31 N32         -5.3220    -0.5490     0.5600 na         1 F0K      -0.061400
     32 C33         -5.1830     0.8640     0.8560 c3         1 F0K       0.036000
     33 C34         -4.2050     1.5740    -0.0220 cc         1 F0K       0.266600
     34 C35         -4.4310     2.1470    -1.2440 cd         1 F0K      -0.233600
     35 N36         -3.2330     2.6660    -1.6390 na         1 F0K      -0.184900
     36 C37         -2.3440     2.3900    -0.6620 cd         1 F0K       0.390400
     37 N38         -2.8940     1.7370     0.3280 nc         1 F0K      -0.673000
     38 C39         -2.9690     3.3750    -2.8720 c3         1 F0K       0.023600
     39 H1           5.4090     1.8960     3.8330 ha         1 F0K       0.148000
     40 H2           1.7910     0.1550     2.2670 ha         1 F0K       0.154000
     41 H3           1.7060     3.7270    -4.1540 ha         1 F0K       0.126000
     42 H4          -0.1980     2.2390    -3.6240 ha         1 F0K       0.120000
     43 H6          -2.7230    -0.4330     1.6510 ha         1 F0K       0.151000
     44 H7           1.9580     1.4390     4.1860 ho         1 F0K       0.429000
     45 H8           6.7090     0.9260     1.9610 ha         1 F0K       0.152000
     46 H9           4.4390    -1.7930    -1.5460 hn         1 F0K       0.331500
     47 H10          2.7330    -1.9690     0.3750 h1         1 F0K       0.078700
     48 H13         -0.8420     0.0070    -2.0390 hn         1 F0K       0.302700
     49 H14          4.3000     1.5030    -1.5740 ha         1 F0K       0.146000
     50 H15          3.9180     3.3570    -3.1340 ha         1 F0K       0.133000
     51 H16         -0.4530    -0.5450     1.2670 hn         1 F0K       0.363800
     52 H18         -4.4510    -4.8470     0.0840 ha         1 F0K       0.133000
     53 H19         -0.4180    -3.3880     1.9370 h1         1 F0K       0.059200
     54 H20         -0.9160    -2.0710     2.9780 h1         1 F0K       0.059200
     55 H21         -6.8880    -3.1790    -0.6270 ha         1 F0K       0.155000
     56 H22         -7.2720    -0.5410    -0.2880 h4         1 F0K       0.158000
     57 H23         -6.1730     1.3080     0.7590 h1         1 F0K       0.067700
     58 H24         -4.8850     0.9810     1.9010 h1         1 F0K       0.067700
     59 H25         -5.3220     2.2370    -1.8430 h4         1 F0K       0.179000
     60 H26         -1.3120     2.7050    -0.7180 h5         1 F0K       0.067100
     61 H27         -3.7240     4.1400    -3.0330 h1         1 F0K       0.058367
     62 H28         -1.9980     3.8600    -2.8030 h1         1 F0K       0.058367
     63 H29         -2.9660     2.6940    -3.7200 h1         1 F0K       0.058367
     64 C12          0.0710    -1.8280    -0.2120 c3         1 F0K       0.209000
     65 H5          -2.1910    -4.6470     1.0400 ha         1 F0K       0.126000
     66 H11         -0.8920    -2.0190    -0.7080 h1         1 F0K       0.051200
     67 H12          0.6380    -2.7610    -0.2790 h1         1 F0K       0.051200
@<TRIPOS>BOND
     1     1     2 ar  
     2     1    15 ar  
     3     1    39 1   
     4     2     3 ar  
     5     2    13 1   
     6     3     5 ar  
     7     3    40 1   
     8     4    14 2   
     9     4    16 1   
    10     4    17 1   
    11     5    17 ar  
    12     5    18 1   
    13     6     7 1   
    14     6    18 1   
    15     6    20 2   
    16     7    21 ar  
    17     7    22 ar  
    18     8     9 ar  
    19     8    23 ar  
    20     8    41 1   
    21     9    21 ar  
    22     9    42 1   
    23    10    25 ar  
    24    10    26 ar  
    25    10    29 1   
    26    11    26 ar  
    27    11    27 ar  
    28    11    65 1   
    29    12    25 ar  
    30    12    27 ar  
    31    12    43 1   
    32    13    44 1   
    33    15    17 ar  
    34    15    45 1   
    35    16    18 1   
    36    16    46 1   
    37    18    47 1   
    38    19    20 1   
    39    19    21 1   
    40    19    48 1   
    41    20    64 1   
    42    22    23 ar  
    43    22    49 1   
    44    23    50 1   
    45    24    28 1   
    46    24    51 1   
    47    24    64 1   
    48    25    31 1   
    49    26    52 1   
    50    27    28 1   
    51    28    53 1   
    52    28    54 1   
    53    29    30 2   
    54    29    55 1   
    55    30    31 1   
    56    30    56 1   
    57    31    32 1   
    58    32    33 1   
    59    32    57 1   
    60    32    58 1   
    61    33    34 2   
    62    33    37 1   
    63    34    35 1   
    64    34    59 1   
    65    35    36 1   
    66    35    38 1   
    67    36    37 2   
    68    36    60 1   
    69    38    61 1   
    70    38    62 1   
    71    38    63 1   
    72    64    66 1   
    73    64    67 1   
@<TRIPOS>SUBSTRUCTURE
     1 F0K         1 TEMP              0 ****  ****    0 ROOT
