@<TRIPOS>MOLECULE
F0M
   19    19     1     0     0
SMALL
No Charge or Current Charge


@<TRIPOS>ATOM
      1 C1          -2.1220     2.5750    -0.0890 c3         1 F0M       0.153900
      2 C2          -1.2450     0.2570    -0.0780 ca         1 F0M       0.034100
      3 C3          -1.5350    -1.1220    -0.1020 ca         1 F0M       0.173100
      4 C4          -0.5010    -2.0670    -0.0730 ca         1 F0M      -0.148000
      5 C5           0.8390    -1.6470    -0.0200 ca         1 F0M      -0.028000
      6 C6           1.1540    -0.2680     0.0040 ca         1 F0M      -0.193200
      7 C7           0.1020     0.6840    -0.0250 ca         1 F0M      -0.096000
      8 O3           3.4700    -0.6890     0.0840 o          1 F0M      -0.405000
      9 O1          -2.3080     1.1460    -0.1090 os         1 F0M      -0.365100
     10 N1           2.5860     0.1780     0.0600 no         1 F0M       0.700200
     11 O2           2.8210     1.3940     0.0800 o          1 F0M      -0.405000
     12 O4          -2.8330    -1.5370    -0.1530 oh         1 F0M      -0.517100
     13 H1          -1.5380     2.9060    -0.9570 h1         1 F0M       0.049367
     14 H2          -3.0930     3.0850    -0.1190 h1         1 F0M       0.049367
     15 H3          -1.6030     2.8890     0.8260 h1         1 F0M       0.049367
     16 H4          -0.7380    -3.1280    -0.0920 ha         1 F0M       0.145000
     17 H5           1.6250    -2.4010     0.0010 ha         1 F0M       0.155000
     18 H6           0.3400     1.7440    -0.0070 ha         1 F0M       0.154000
     19 H7          -3.3820    -0.7210    -0.1650 ho         1 F0M       0.493000
@<TRIPOS>BOND
     1     1     9 1   
     2     1    13 1   
     3     1    14 1   
     4     1    15 1   
     5     2     3 ar  
     6     2     7 ar  
     7     2     9 1   
     8     3     4 ar  
     9     3    12 1   
    10     4     5 ar  
    11     4    16 1   
    12     5     6 ar  
    13     5    17 1   
    14     6     7 ar  
    15     6    10 1   
    16     7    18 1   
    17     8    10 1   
    18    10    11 1   
    19    12    19 1   
@<TRIPOS>SUBSTRUCTURE
     1 F0M         1 TEMP              0 ****  ****    0 ROOT
