@<TRIPOS>MOLECULE
F0M
   19    19     1     0     0
SMALL
abcg2


@<TRIPOS>ATOM
      1 C1          -2.0630     2.5140    -0.0900 c3         1 F0M       0.153900
      2 C2          -1.2060     0.3000    -0.0720 ca         1 F0M       0.034100
      3 C3          -1.5180    -1.0770    -0.1000 ca         1 F0M       0.173100
      4 C4          -0.4960    -2.0130    -0.0750 ca         1 F0M      -0.148000
      5 C5           0.8280    -1.6120    -0.0220 ca         1 F0M      -0.028000
      6 C6           1.1170    -0.2590     0.0040 ca         1 F0M      -0.193200
      7 C7           0.1100     0.7070    -0.0210 ca         1 F0M      -0.096000
      8 O3           3.3600    -0.6720     0.0730 o          1 F0M      -0.405000
      9 O1          -2.2750     1.1140    -0.0990 os         1 F0M      -0.365100
     10 N1           2.4930     0.1740     0.0580 no         1 F0M       0.700200
     11 O2           2.7210     1.3630     0.0860 o          1 F0M      -0.405000
     12 O4          -2.7830    -1.4960    -0.1490 oh         1 F0M      -0.517100
     13 H1          -1.4910     2.8390    -0.9620 h1         1 F0M       0.049367
     14 H2          -3.0470     2.9740    -0.1210 h1         1 F0M       0.049367
     15 H3          -1.5470     2.8350     0.8180 h1         1 F0M       0.049367
     16 H4          -0.7420    -3.0670    -0.0960 ha         1 F0M       0.145000
     17 H5           1.6100    -2.3560    -0.0030 ha         1 F0M       0.155000
     18 H6           0.3620     1.7570     0.0010 ha         1 F0M       0.154000
     19 H7          -3.3920    -0.7460    -0.1650 ho         1 F0M       0.493000
@<TRIPOS>BOND
     1     1     9 1   
     2     1    13 1   
     3     1    14 1   
     4     1    15 1   
     5     2     3 ar  
     6     2     7 ar  
     7     2     9 1   
     8     3     4 ar  
     9     3    12 1   
    10     4     5 ar  
    11     4    16 1   
    12     5     6 ar  
    13     5    17 1   
    14     6     7 ar  
    15     6    10 1   
    16     7    18 1   
    17     8    10 1   
    18    10    11 1   
    19    12    19 1   
@<TRIPOS>SUBSTRUCTURE
     1 F0M         1 TEMP              0 ****  ****    0 ROOT
