@<TRIPOS>MOLECULE
F0N
   43    47     1     0     0
SMALL
bcc


@<TRIPOS>ATOM
      1 N1          -2.1180     1.3570     0.5630 na         1 F0N      -0.171400
      2 C4           4.0280    -1.5690     0.0510 ca         1 F0N      -0.061000
      3 C5           4.0220    -2.0010     1.3700 ca         1 F0N      -0.141000
      4 C6           2.8240    -2.0950     2.0800 ca         1 F0N      -0.110000
      5 C7           1.6090    -1.7630     1.4910 ca         1 F0N      -0.111000
      6 C8          -0.3640     0.1790    -0.1520 cc         1 F0N      -0.145400
      7 C10         -1.0360     2.1720     0.7310 ca         1 F0N      -0.045200
      8 C13          1.4380     3.3640     0.8660 ca         1 F0N      -0.158000
      9 C15          0.1000     1.4620     0.2920 ca         1 F0N      -0.080800
     10 C17         -3.6420    -1.3060     0.8920 c5         1 F0N      -0.110400
     11 N            1.1850    -0.5500    -1.9240 ns         1 F0N      -0.576900
     12 C            2.5210    -0.7420    -1.8890 c          1 F0N       0.721100
     13 O            3.3160    -0.5380    -2.7920 o          1 F0N      -0.624500
     14 C1           0.4760    -0.9200    -0.7100 c5         1 F0N       0.237200
     15 C11         -0.9580     3.4680     1.2360 ca         1 F0N      -0.151000
     16 C12          0.2920     4.0520     1.2970 ca         1 F0N      -0.105000
     17 C14          1.3540     2.0790     0.3650 ca         1 F0N      -0.068000
     18 C16         -2.7140    -0.9130    -0.2720 c5         1 F0N       0.194700
     19 C18         -4.8290    -1.9740     0.1820 c5         1 F0N      -0.114400
     20 C19         -4.6610    -1.5760    -1.3070 c5         1 F0N       0.130800
     21 C2           1.6220    -1.3380     0.1760 ca         1 F0N      -0.078300
     22 C3           2.8110    -1.2430    -0.5260 ca         1 F0N      -0.165600
     23 C9          -1.7230     0.1580     0.0310 cd         1 F0N      -0.036300
     24 N2          -3.6040    -0.5700    -1.3820 n7         1 F0N      -0.762200
     25 H1          -3.0630     1.6040     0.8090 hn         1 F0N       0.296700
     26 H3           4.9510    -2.2630     1.8570 ha         1 F0N       0.134000
     27 H4           2.8440    -2.4300     3.1090 ha         1 F0N       0.131000
     28 H5           0.6850    -1.8330     2.0520 ha         1 F0N       0.139000
     29 H6           2.4020     3.8520     0.9310 ha         1 F0N       0.132000
     30 H7          -3.1460    -1.9570     1.6120 hc         1 F0N       0.050200
     31 H8          -3.9730    -0.4160     1.4320 hc         1 F0N       0.050200
     32 H9           0.7000    -0.2270    -2.7470 hn         1 F0N       0.337500
     33 H10         -0.1560    -1.7930    -0.9070 h1         1 F0N       0.064700
     34 H11         -1.8430     3.9960     1.5680 ha         1 F0N       0.130000
     35 H12          0.3920     5.0580     1.6850 ha         1 F0N       0.129000
     36 H13          2.2510     1.5660     0.0430 ha         1 F0N       0.143000
     37 H14         -2.1590    -1.8070    -0.5740 h1         1 F0N       0.081700
     38 H15         -4.8040    -3.0580     0.2980 hc         1 F0N       0.051700
     39 H16         -5.7780    -1.6270     0.5900 hc         1 F0N       0.051700
     40 H17         -4.3600    -2.4490    -1.8910 h1         1 F0N       0.057700
     41 H18         -5.5770    -1.1890    -1.7520 h1         1 F0N       0.057700
     42 H19         -4.0150     0.3410    -1.2030 hn         1 F0N       0.341800
     43 H2           4.9520    -1.4860    -0.5060 ha         1 F0N       0.152000
@<TRIPOS>BOND
     1     1     7 1   
     2     1    23 1   
     3     1    25 1   
     4     2     3 ar  
     5     2    22 ar  
     6     2    43 1   
     7     3     4 ar  
     8     3    26 1   
     9     4     5 ar  
    10     4    27 1   
    11     5    21 ar  
    12     5    28 1   
    13     6     9 1   
    14     6    14 1   
    15     6    23 2   
    16     7     9 ar  
    17     7    15 ar  
    18     8    16 ar  
    19     8    17 ar  
    20     8    29 1   
    21     9    17 ar  
    22    10    18 1   
    23    10    19 1   
    24    10    30 1   
    25    10    31 1   
    26    11    12 1   
    27    11    14 1   
    28    11    32 1   
    29    12    13 2   
    30    12    22 1   
    31    14    21 1   
    32    14    33 1   
    33    15    16 ar  
    34    15    34 1   
    35    16    35 1   
    36    17    36 1   
    37    18    23 1   
    38    18    24 1   
    39    18    37 1   
    40    19    20 1   
    41    19    38 1   
    42    19    39 1   
    43    20    24 1   
    44    20    40 1   
    45    20    41 1   
    46    21    22 ar  
    47    24    42 1   
@<TRIPOS>SUBSTRUCTURE
     1 F0N         1 TEMP              0 ****  ****    0 ROOT
