@<TRIPOS>MOLECULE
F0N
   43    47     1     0     0
SMALL
No Charge or Current Charge


@<TRIPOS>ATOM
      1 N1          -2.0820     1.4670     0.9430 na         1 F0N      -0.221700
      2 C4           3.8700    -1.4100    -0.1190 ca         1 F0N      -0.043000
      3 C5           3.9530    -1.9420     1.1860 ca         1 F0N      -0.123000
      4 C6           2.7790    -2.1810     1.9400 ca         1 F0N      -0.092000
      5 C7           1.5090    -1.8910     1.3970 ca         1 F0N      -0.093000
      6 C8          -0.4150     0.2050    -0.0480 cc         1 F0N      -0.145400
      7 C10         -0.9050     2.1870     0.9670 ca         1 F0N      -0.045200
      8 C13          1.6410     3.3030     0.8440 ca         1 F0N      -0.140000
      9 C15          0.1180     1.4790     0.3920 ca         1 F0N      -0.080800
     10 C17         -4.0590    -0.7770     0.7110 c5         1 F0N      -0.110400
     11 N            0.8380    -0.4160    -1.9610 ns         1 F0N      -0.509900
     12 C            2.2100    -0.5460    -1.9460 c          1 F0N       0.578600
     13 O            2.9590    -0.2180    -2.8520 o          1 F0N      -0.549000
     14 C1           0.2500    -0.9820    -0.7400 c5         1 F0N       0.237200
     15 C11         -0.7100     3.4690     1.4990 ca         1 F0N      -0.133000
     16 C12          0.5810     4.0300     1.4330 ca         1 F0N      -0.087000
     17 C14          1.4160     2.0140     0.3170 ca         1 F0N      -0.050000
     18 C16         -2.6710    -0.9610     0.0520 c5         1 F0N       0.194700
     19 C18         -4.8470    -1.9420     0.0510 c5         1 F0N      -0.114400
     20 C19         -4.1550    -2.1090    -1.3360 c5         1 F0N       0.130800
     21 C2           1.4470    -1.3610     0.1000 ca         1 F0N      -0.078300
     22 C3           2.5950    -1.1310    -0.6330 ca         1 F0N      -0.165600
     23 C9          -1.7660     0.2400     0.3190 cd         1 F0N      -0.036300
     24 N2          -3.0600    -1.1090    -1.3630 n7         1 F0N      -0.817400
     25 H1          -2.9830     1.7520     1.3090 hn         1 F0N       0.347000
     26 H3           4.9260    -2.1680     1.6150 ha         1 F0N       0.116000
     27 H4           2.8550    -2.5910     2.9440 ha         1 F0N       0.113000
     28 H5           0.6010    -2.0750     1.9680 ha         1 F0N       0.121000
     29 H6           2.6360     3.7400     0.7980 ha         1 F0N       0.114000
     30 H7          -4.0230    -0.8580     1.8030 hc         1 F0N       0.050200
     31 H8          -4.5110     0.1900     0.4610 hc         1 F0N       0.050200
     32 H9           0.3540    -0.0480    -2.7680 hn         1 F0N       0.337500
     33 H10         -0.4140    -1.8340    -0.9340 h1         1 F0N       0.064700
     34 H11         -1.5320     4.0180     1.9530 ha         1 F0N       0.112000
     35 H12          0.7630     5.0230     1.8380 ha         1 F0N       0.111000
     36 H13          2.2360     1.4630    -0.1290 ha         1 F0N       0.125000
     37 H14         -2.1850    -1.8720     0.4320 h1         1 F0N       0.081700
     38 H15         -4.7610    -2.8640     0.6390 hc         1 F0N       0.051700
     39 H16         -5.9150    -1.7150    -0.0410 hc         1 F0N       0.051700
     40 H17         -3.7480    -3.1260    -1.4340 h1         1 F0N       0.057700
     41 H18         -4.8560    -1.9540    -2.1700 h1         1 F0N       0.057700
     42 H19         -3.4520    -0.2090    -1.6600 hn         1 F0N       0.397000
     43 H2           4.7660    -1.2170    -0.7040 ha         1 F0N       0.134000
@<TRIPOS>BOND
     1     1     7 1   
     2     1    23 1   
     3     1    25 1   
     4     2     3 ar  
     5     2    22 ar  
     6     2    43 1   
     7     3     4 ar  
     8     3    26 1   
     9     4     5 ar  
    10     4    27 1   
    11     5    21 ar  
    12     5    28 1   
    13     6     9 1   
    14     6    14 1   
    15     6    23 2   
    16     7     9 ar  
    17     7    15 ar  
    18     8    16 ar  
    19     8    17 ar  
    20     8    29 1   
    21     9    17 ar  
    22    10    18 1   
    23    10    19 1   
    24    10    30 1   
    25    10    31 1   
    26    11    12 1   
    27    11    14 1   
    28    11    32 1   
    29    12    13 2   
    30    12    22 1   
    31    14    21 1   
    32    14    33 1   
    33    15    16 ar  
    34    15    34 1   
    35    16    35 1   
    36    17    36 1   
    37    18    23 1   
    38    18    24 1   
    39    18    37 1   
    40    19    20 1   
    41    19    38 1   
    42    19    39 1   
    43    20    24 1   
    44    20    40 1   
    45    20    41 1   
    46    21    22 ar  
    47    24    42 1   
@<TRIPOS>SUBSTRUCTURE
     1 F0N         1 TEMP              0 ****  ****    0 ROOT
