@<TRIPOS>MOLECULE
F0O
   10    10     1     0     0
SMALL
No Charge or Current Charge


@<TRIPOS>ATOM
      1 C3          -5.1130     0.3250    73.2830 cc         1 F0O       0.239900
      2 C2          -3.4960     1.1070    74.5620 cd         1 F0O       0.432400
      3 C1          -4.7910     1.0560    70.9050 c          1 F0O       0.741600
      4 C4          -4.3980     1.0030    72.3270 cd         1 F0O      -0.234600
      5 N1          -4.6050     0.3800    74.5590 nc         1 F0O      -0.655000
      6 O11         -4.0870     1.6870    70.1320 o          1 F0O      -0.701000
      7 O12         -5.8040     0.4680    70.5560 o          1 F0O      -0.701000
      8 S1          -2.9820     1.7800    73.0210 ss         1 F0O       0.017600
      9 Cl2         -2.6050     1.3710    76.0270 cl         1 F0O      -0.186000
     10 H3          -6.0250    -0.2370    73.1240 h4         1 F0O       0.045100
@<TRIPOS>BOND
     1     1     4 2   
     2     1     5 1   
     3     1    10 1   
     4     2     5 2   
     5     2     8 1   
     6     2     9 1   
     7     3     4 1   
     8     3     6 1   
     9     3     7 1   
    10     4     8 1   
@<TRIPOS>SUBSTRUCTURE
     1 F0O         1 TEMP              0 ****  ****    0 ROOT
