@<TRIPOS>MOLECULE
F0O
   10    10     1     0     0
SMALL
bcc


@<TRIPOS>ATOM
      1 C3          -5.1340     0.3030    73.3380 cc         1 F0O       0.305200
      2 C2          -3.5130     1.1000    74.5410 cd         1 F0O       0.432400
      3 C1          -4.7740     1.0730    70.8690 c          1 F0O       0.952200
      4 C4          -4.4710     0.9470    72.3420 cd         1 F0O      -0.155000
      5 N1          -4.5860     0.3920    74.5880 nc         1 F0O      -0.655000
      6 O11         -3.9640     1.7660    70.2290 o          1 F0O      -0.806300
      7 O12         -5.7880     0.4780    70.4730 o          1 F0O      -0.806300
      8 S1          -3.0760     1.7150    72.9990 ss         1 F0O      -0.127300
      9 CL2         -2.5540     1.4260    75.9180 cl         1 F0O      -0.186000
     10 H3          -6.0460    -0.2590    73.1980 h4         1 F0O       0.045100
@<TRIPOS>BOND
     1     1     4 2   
     2     1     5 1   
     3     1    10 1   
     4     2     5 2   
     5     2     8 1   
     6     2     9 1   
     7     3     4 1   
     8     3     6 1   
     9     3     7 1   
    10     4     8 1   
@<TRIPOS>SUBSTRUCTURE
     1 F0O         1 TEMP              0 ****  ****    0 ROOT
