@<TRIPOS>MOLECULE
F0P
   69    72     1     0     0
SMALL
No Charge or Current Charge


@<TRIPOS>ATOM
      1 C4           2.0640     2.0680   -10.2800 ca         1 F0P       0.146500
      2 C14         -7.1480    -3.7260    -6.7790 c          1 F0P       0.615700
      3 C5           1.7990     1.1270   -11.2420 ca         1 F0P      -0.098600
      4 C6           2.8890     0.5560   -11.9310 ca         1 F0P       0.441900
      5 C11         -7.3340    -1.9940    -8.6150 ca         1 F0P      -0.072000
      6 C7          -5.7870    -0.1390    -7.1710 ca         1 F0P      -0.059300
      7 C8          -0.1260     1.7050   -10.4730 cc         1 F0P       0.419700
      8 C9          -6.2890     0.1970    -8.4410 ca         1 F0P      -0.067000
      9 C10         -7.0610    -0.7290    -9.1590 ca         1 F0P      -0.123000
     10 C12         -6.8380    -2.3540    -7.3410 ca         1 F0P      -0.162600
     11 C13         -6.0600    -1.4090    -6.6270 ca         1 F0P      -0.102000
     12 N1           4.1520     0.9170   -11.6550 nb         1 F0P      -0.304000
     13 C3          -4.9420     0.8630    -6.3940 c3         1 F0P      -0.057100
     14 N3           3.3190     2.4580    -9.9810 nb         1 F0P      -0.204000
     15 N           -2.5750     1.2420    -1.5520 n8         1 F0P      -1.005200
     16 CA          -3.6880     2.2560    -1.6460 c3         1 F0P       0.014500
     17 C           -5.1570     1.6890    -1.8390 c          1 F0P       0.686000
     18 OXT         -5.2960     0.5900    -2.3600 o          1 F0P      -0.738000
     19 CB          -3.3620     3.3720    -2.6820 c3         1 F0P      -0.038400
     20 CG          -2.5600     1.9370    -4.7160 c3         1 F0P       0.166800
     21 ND          -2.5590     1.8080    -6.2040 n3         1 F0P      -0.759600
     22 CE          -3.4430     0.7300    -6.7250 c3         1 F0P       0.191800
     23 C1          -3.5340     3.0150    -4.1830 c3         1 F0P      -0.060400
     24 C18          0.6120     3.4490    -8.7460 c5         1 F0P       0.311300
     25 C2           4.3040     1.8560   -10.6890 ca         1 F0P       0.171900
     26 C19         -0.8150     4.1190    -8.6530 c5         1 F0P       0.136300
     27 C17         -0.9570     4.3170    -7.1180 c5         1 F0P       0.115300
     28 C15         -0.3010     2.9870    -6.6190 c5         1 F0P       0.131300
     29 C16         -1.1910     1.7120    -6.7850 c3         1 F0P       0.169800
     30 N16         -6.6670    -4.0400    -5.5580 nt         1 F0P      -0.609000
     31 N6           2.7340    -0.3870   -12.8990 nv         1 F0P      -1.072900
     32 N7           0.4300     0.8800   -11.3800 nd         1 F0P      -0.566100
     33 N9           0.8460     2.4420    -9.7850 na         1 F0P      -0.288300
     34 O15         -7.8110    -4.5540    -7.3830 o          1 F0P      -0.627100
     35 O2          -0.9100     5.3860    -9.3150 oh         1 F0P      -0.685000
     36 O3          -0.2490     5.5030    -6.6920 oh         1 F0P      -0.708000
     37 O4           0.8830     2.8670    -7.4450 os         1 F0P      -0.464000
     38 H2          -1.1870     1.8010   -10.2780 h5         1 F0P       0.067800
     39 H3          -6.0800     1.1740    -8.8730 ha         1 F0P       0.147000
     40 H4          -7.4480    -0.4670   -10.1420 ha         1 F0P       0.115000
     41 H5          -5.6590    -1.6490    -5.6460 ha         1 F0P       0.099000
     42 H6          -5.0910     0.7140    -5.3190 hc         1 F0P       0.091200
     43 H7          -5.2650     1.8860    -6.6190 hc         1 F0P       0.091200
     44 H8          -2.7510     0.6340    -0.7430 hn         1 F0P       0.383500
     45 H9          -2.6730     0.5950    -2.3420 hn         1 F0P       0.383500
     46 H11         -3.6970     2.7570    -0.6670 h1         1 F0P       0.035700
     47 H13         -2.3400     3.7350    -2.5160 hc         1 F0P       0.028200
     48 H14         -4.0170     4.2260    -2.4690 hc         1 F0P       0.028200
     49 H15         -2.8020     0.9690    -4.2560 h1         1 F0P       0.045200
     50 H16         -1.5600     2.2040    -4.3520 h1         1 F0P       0.045200
     51 H18         -3.3590     0.7080    -7.8200 h1         1 F0P       0.017200
     52 H19         -3.0910    -0.2460    -6.3630 h1         1 F0P       0.017200
     53 H20         -3.3740     3.9320    -4.7620 hc         1 F0P       0.034700
     54 H21         -4.5720     2.7220    -4.3660 hc         1 F0P       0.034700
     55 H22          1.3550     4.2370    -8.9310 h2         1 F0P       0.124700
     56 H23          5.3240     2.1580   -10.4580 h5         1 F0P       0.044100
     57 H24         -1.6030     3.4470    -9.0150 h1         1 F0P       0.042700
     58 H25         -2.0160     4.3730    -6.8250 h1         1 F0P       0.082700
     59 H26          0.0050     3.0630    -5.5680 h1         1 F0P       0.090700
     60 H27         -1.2700     1.4950    -7.8570 h1         1 F0P       0.032200
     61 H28         -0.6580     0.8630    -6.3370 h1         1 F0P       0.032200
     62 H29         -6.8650    -4.9500    -5.1700 hn         1 F0P       0.311000
     63 H30         -6.1200    -3.3700    -5.0420 hn         1 F0P       0.311000
     64 H31          3.5390    -0.9590   -13.1410 hn         1 F0P       0.502500
     65 H32          1.8200    -0.8280   -12.9720 hn         1 F0P       0.502500
     66 H33         -0.6550     6.0270    -8.6040 ho         1 F0P       0.510000
     67 H34         -0.3130     5.5500    -5.7080 ho         1 F0P       0.516000
     68 O           -6.0860     2.3140    -1.3470 o          1 F0P      -0.738000
     69 H1          -7.9350    -2.6980    -9.1880 ha         1 F0P       0.124000
@<TRIPOS>BOND
     1     1     3 ar  
     2     1    14 ar  
     3     1    33 1   
     4     2    10 1   
     5     2    30 1   
     6     2    34 2   
     7     3     4 ar  
     8     3    32 1   
     9     4    12 ar  
    10     4    31 1   
    11     5     9 ar  
    12     5    10 ar  
    13     5    69 1   
    14     6     8 ar  
    15     6    11 ar  
    16     6    13 1   
    17     7    32 2   
    18     7    33 1   
    19     7    38 1   
    20     8     9 ar  
    21     8    39 1   
    22     9    40 1   
    23    10    11 ar  
    24    11    41 1   
    25    12    25 ar  
    26    13    22 1   
    27    13    42 1   
    28    13    43 1   
    29    14    25 ar  
    30    15    16 1   
    31    15    44 1   
    32    15    45 1   
    33    16    17 1   
    34    16    19 1   
    35    16    46 1   
    36    17    18 1   
    37    17    68 1   
    38    19    23 1   
    39    19    47 1   
    40    19    48 1   
    41    20    21 1   
    42    20    23 1   
    43    20    49 1   
    44    20    50 1   
    45    21    22 1   
    46    21    29 1   
    47    22    51 1   
    48    22    52 1   
    49    23    53 1   
    50    23    54 1   
    51    24    26 1   
    52    24    33 1   
    53    24    37 1   
    54    24    55 1   
    55    25    56 1   
    56    26    27 1   
    57    26    35 1   
    58    26    57 1   
    59    27    28 1   
    60    27    36 1   
    61    27    58 1   
    62    28    29 1   
    63    28    37 1   
    64    28    59 1   
    65    29    60 1   
    66    29    61 1   
    67    30    62 1   
    68    30    63 1   
    69    31    64 1   
    70    31    65 1   
    71    35    66 1   
    72    36    67 1   
@<TRIPOS>SUBSTRUCTURE
     1 F0P         1 TEMP              0 ****  ****    0 ROOT
