@<TRIPOS>MOLECULE
F0P
   69    72     1     0     0
SMALL
abcg2


@<TRIPOS>ATOM
      1 C4           2.6620     2.0960   -10.1940 ca         1 F0P       0.146500
      2 C14         -7.0540    -3.2150    -8.2240 c          1 F0P       0.615700
      3 C5           2.8230     0.9610   -10.9880 ca         1 F0P      -0.098600
      4 C6           4.0230     0.8660   -11.7190 ca         1 F0P       0.441900
      5 C11         -8.5080    -1.6550    -6.9570 ca         1 F0P      -0.072000
      6 C7          -6.3590     0.0700    -6.4050 ca         1 F0P      -0.059300
      7 C8           0.9220     0.7500   -10.0430 cc         1 F0P       0.419700
      8 C9          -7.6450     0.3430    -5.9270 ca         1 F0P      -0.067000
      9 C10         -8.7080    -0.5060    -6.2010 ca         1 F0P      -0.123000
     10 C12         -7.2320    -1.9590    -7.4260 ca         1 F0P      -0.162600
     11 C13         -6.1710    -1.0910    -7.1520 ca         1 F0P      -0.102000
     12 N1           4.9180     1.8650   -11.5980 nb         1 F0P      -0.304000
     13 C3          -5.2440     1.0440    -6.1040 c3         1 F0P      -0.057100
     14 N3           3.5380     3.0980   -10.0660 nb         1 F0P      -0.204000
     15 N           -3.4730     1.1310    -1.5920 n8         1 F0P      -1.005200
     16 CA          -3.8470     2.5490    -1.7290 c3         1 F0P       0.014500
     17 C           -5.3210     2.7730    -2.1620 c          1 F0P       0.686000
     18 OXT         -5.9320     1.7980    -2.6710 o          1 F0P      -0.738000
     19 CB          -2.9060     3.3170    -2.6800 c3         1 F0P      -0.038400
     20 CG          -2.6530     1.7110    -4.6910 c3         1 F0P       0.166800
     21 ND          -2.8230     1.5640    -6.1480 n3         1 F0P      -0.759600
     22 CE          -3.8470     0.5850    -6.5030 c3         1 F0P       0.191800
     23 C1          -3.0950     3.0820    -4.1820 c3         1 F0P      -0.060400
     24 C18          0.8290     2.8610    -8.6450 c5         1 F0P       0.311300
     25 C2           4.6320     2.8990   -10.7990 ca         1 F0P       0.171900
     26 C19         -0.5390     3.3960    -9.0700 c5         1 F0P       0.136300
     27 C17         -1.1890     3.7110    -7.7190 c5         1 F0P       0.115300
     28 C15         -0.6720     2.5570    -6.8570 c5         1 F0P       0.131300
     29 C16         -1.5700     1.3230    -6.8480 c3         1 F0P       0.169800
     30 N16         -5.8090    -3.7330    -8.2730 nt         1 F0P      -0.609000
     31 N6           4.3010    -0.1660   -12.5320 nv         1 F0P      -1.072900
     32 N7           1.7200     0.1310   -10.8750 nd         1 F0P      -0.566100
     33 N9           1.4310     1.9500    -9.5940 na         1 F0P      -0.288300
     34 O15         -8.0010    -3.7450    -8.8080 o          1 F0P      -0.627100
     35 O2          -0.3620     4.4720    -9.9630 oh         1 F0P      -0.685000
     36 O3          -0.7050     4.9730    -7.2740 oh         1 F0P      -0.708000
     37 O4           0.6180     2.1920    -7.4150 os         1 F0P      -0.464000
     38 H2          -0.0380     0.3870    -9.7110 h5         1 F0P       0.067800
     39 H3          -7.8080     1.2330    -5.3300 ha         1 F0P       0.147000
     40 H4          -9.6960    -0.2740    -5.8230 ha         1 F0P       0.115000
     41 H5          -5.1900    -1.3120    -7.5470 ha         1 F0P       0.099000
     42 H6          -5.2750     1.2660    -5.0340 hc         1 F0P       0.091200
     43 H7          -5.4540     1.9910    -6.6110 hc         1 F0P       0.091200
     44 H8          -3.7760     0.8070    -0.6780 hn         1 F0P       0.383500
     45 H9          -4.0490     0.6080    -2.2480 hn         1 F0P       0.383500
     46 H11         -3.7330     3.0110    -0.7450 h1         1 F0P       0.035700
     47 H13         -1.8760     3.0790    -2.3960 hc         1 F0P       0.028200
     48 H14         -3.0500     4.3820    -2.4890 hc         1 F0P       0.028200
     49 H15         -3.2100     0.9200    -4.1850 h1         1 F0P       0.045200
     50 H16         -1.6040     1.5520    -4.4250 h1         1 F0P       0.045200
     51 H18         -3.8070     0.4440    -7.5850 h1         1 F0P       0.017200
     52 H19         -3.6340    -0.3960    -6.0440 h1         1 F0P       0.017200
     53 H20         -2.5230     3.8410    -4.7250 hc         1 F0P       0.034700
     54 H21         -4.1410     3.2420    -4.4540 hc         1 F0P       0.034700
     55 H22          1.5340     3.6870    -8.5300 h2         1 F0P       0.124700
     56 H23          5.3920     3.6720   -10.7430 h5         1 F0P       0.044100
     57 H24         -1.1100     2.5930    -9.5430 h1         1 F0P       0.042700
     58 H25         -2.2790     3.7060    -7.7730 h1         1 F0P       0.082700
     59 H26         -0.4960     2.9060    -5.8390 h1         1 F0P       0.090700
     60 H27         -1.7970     1.0450    -7.8790 h1         1 F0P       0.032200
     61 H28         -0.9950     0.4910    -6.4090 h1         1 F0P       0.032200
     62 H29         -5.6620    -4.5910    -8.7820 hn         1 F0P       0.311000
     63 H30         -5.0560    -3.3850    -7.7050 hn         1 F0P       0.311000
     64 H31          5.2060    -0.2240   -12.9690 hn         1 F0P       0.502500
     65 H32          3.6890    -0.9630   -12.5730 hn         1 F0P       0.502500
     66 H33         -1.2090     4.6700   -10.3830 ho         1 F0P       0.510000
     67 H34         -1.0690     5.1400    -6.3950 ho         1 F0P       0.516000
     68 O           -5.7820     3.9320    -1.9950 o          1 F0P      -0.738000
     69 H1          -9.3280    -2.3250    -7.1770 ha         1 F0P       0.124000
@<TRIPOS>BOND
     1     1     3 ar  
     2     1    14 ar  
     3     1    33 1   
     4     2    10 1   
     5     2    30 1   
     6     2    34 2   
     7     3     4 ar  
     8     3    32 1   
     9     4    12 ar  
    10     4    31 1   
    11     5     9 ar  
    12     5    10 ar  
    13     5    69 1   
    14     6     8 ar  
    15     6    11 ar  
    16     6    13 1   
    17     7    32 2   
    18     7    33 1   
    19     7    38 1   
    20     8     9 ar  
    21     8    39 1   
    22     9    40 1   
    23    10    11 ar  
    24    11    41 1   
    25    12    25 ar  
    26    13    22 1   
    27    13    42 1   
    28    13    43 1   
    29    14    25 ar  
    30    15    16 1   
    31    15    44 1   
    32    15    45 1   
    33    16    17 1   
    34    16    19 1   
    35    16    46 1   
    36    17    18 1   
    37    17    68 1   
    38    19    23 1   
    39    19    47 1   
    40    19    48 1   
    41    20    21 1   
    42    20    23 1   
    43    20    49 1   
    44    20    50 1   
    45    21    22 1   
    46    21    29 1   
    47    22    51 1   
    48    22    52 1   
    49    23    53 1   
    50    23    54 1   
    51    24    26 1   
    52    24    33 1   
    53    24    37 1   
    54    24    55 1   
    55    25    56 1   
    56    26    27 1   
    57    26    35 1   
    58    26    57 1   
    59    27    28 1   
    60    27    36 1   
    61    27    58 1   
    62    28    29 1   
    63    28    37 1   
    64    28    59 1   
    65    29    60 1   
    66    29    61 1   
    67    30    62 1   
    68    30    63 1   
    69    31    64 1   
    70    31    65 1   
    71    35    66 1   
    72    36    67 1   
@<TRIPOS>SUBSTRUCTURE
     1 F0P         1 TEMP              0 ****  ****    0 ROOT
