@<TRIPOS>MOLECULE
F0Q
   61    64     1     0     0
SMALL
No Charge or Current Charge


@<TRIPOS>ATOM
      1 O           -2.6260    -3.1780    -0.2310 o          1 F0Q      -0.651100
      2 C11         -2.3850    -2.1460    -0.8380 c          1 F0Q       0.659100
      3 N1          -3.4010    -1.3650    -1.4310 n          1 F0Q      -0.403800
      4 C4          -4.8180    -1.7800    -1.3350 c3         1 F0Q       0.159300
      5 C5          -5.6030    -0.9700    -0.3120 ca         1 F0Q      -0.164300
      6 C6          -6.5320     0.0030    -0.7320 ca         1 F0Q      -0.050000
      7 C7          -7.2480     0.7510     0.2200 ca         1 F0Q      -0.184000
      8 C8          -7.0410     0.5340     1.5890 ca         1 F0Q       0.282000
      9 N2          -7.7420     1.2610     2.5110 nv         1 F0Q      -1.081000
     10 C9          -6.1170    -0.4310     2.0110 ca         1 F0Q      -0.184000
     11 C10         -5.3980    -1.1830     1.0650 ca         1 F0Q      -0.050000
     12 C3          -3.1260    -0.0850    -2.1520 c3         1 F0Q       0.077700
     13 C2          -2.4910     0.9900    -1.2940 cc         1 F0Q       0.454300
     14 N5          -3.1840     1.6150    -0.3020 nc         1 F0Q      -0.387000
     15 N6          -2.3410     2.4410     0.2510 nd         1 F0Q      -0.180800
     16 N           -1.1700     2.2760    -0.4420 na         1 F0Q       0.264600
     17 C            0.0580     3.0140    -0.1280 c3         1 F0Q       0.068900
     18 N7          -1.2440     1.3630    -1.4460 nd         1 F0Q      -0.514800
     19 N3          -1.0960    -1.6920    -0.9690 ns         1 F0Q      -0.499900
     20 C12          0.0800    -2.3200    -0.3290 c3         1 F0Q       0.030000
     21 C13          1.3620    -1.4610    -0.4840 c          1 F0Q       0.586100
     22 O1           1.4000    -0.4920    -1.2330 o          1 F0Q      -0.600100
     23 N4           2.4860    -1.8170     0.2870 n          1 F0Q      -0.415800
     24 C14          2.6290    -3.1200     0.9720 c5         1 F0Q       0.102000
     25 C15          4.1690    -3.2250     1.1250 c5         1 F0Q      -0.095400
     26 C16          4.5640    -1.7550     1.4080 c5         1 F0Q      -0.088400
     27 C17          3.7170    -0.9970     0.3450 c5         1 F0Q       0.154000
     28 C18          3.3920     0.3950     0.9250 ca         1 F0Q      -0.049300
     29 C23          3.9820     1.5710     0.3970 ca         1 F0Q       0.000100
     30 Br           5.2250     1.5110    -1.0660 br         1 F0Q      -0.104100
     31 C19          2.4940     0.5310     2.0120 ca         1 F0Q      -0.094000
     32 C20          2.1950     1.7920     2.5540 ca         1 F0Q      -0.107000
     33 C21          2.7890     2.9440     2.0210 ca         1 F0Q      -0.110000
     34 C22          3.6800     2.8320     0.9430 ca         1 F0Q      -0.085000
     35 H1          -5.2830    -1.6720    -2.3240 h1         1 F0Q       0.067700
     36 H2          -4.8900    -2.8450    -1.0790 h1         1 F0Q       0.067700
     37 H3          -6.7000     0.1820    -1.7920 ha         1 F0Q       0.120500
     38 H4          -7.9620     1.4990    -0.1140 ha         1 F0Q       0.113000
     39 H5          -7.6960     1.0090     3.4970 hn         1 F0Q       0.447000
     40 H6          -8.5090     1.8600     2.2110 hn         1 F0Q       0.447000
     41 H7          -5.9510    -0.6030     3.0710 ha         1 F0Q       0.113000
     42 H8          -4.6800    -1.9280     1.4010 ha         1 F0Q       0.120500
     43 H9          -2.4720    -0.2930    -3.0090 h1         1 F0Q       0.077700
     44 H10         -4.0620     0.3180    -2.5570 h1         1 F0Q       0.077700
     45 H11          0.0280     3.3570     0.9120 h1         1 F0Q       0.074700
     46 H12          0.9240     2.3560    -0.2680 h1         1 F0Q       0.074700
     47 H13          0.1430     3.8780    -0.7970 h1         1 F0Q       0.074700
     48 H14         -0.9550    -0.8170    -1.4630 hn         1 F0Q       0.339500
     49 H15         -0.1170    -2.4530     0.7430 h1         1 F0Q       0.067700
     50 H16          0.2630    -3.3030    -0.7800 h1         1 F0Q       0.067700
     51 H17          2.1270    -3.1000     1.9490 h1         1 F0Q       0.052200
     52 H18          2.2250    -3.9560     0.3860 h1         1 F0Q       0.052200
     53 H19          4.4650    -3.9090     1.9290 hc         1 F0Q       0.059200
     54 H20          4.6330    -3.5870     0.2000 hc         1 F0Q       0.059200
     55 H21          4.3000    -1.4770     2.4360 hc         1 F0Q       0.061700
     56 H22          5.6380    -1.5720     1.2900 hc         1 F0Q       0.061700
     57 H23          4.2070    -0.9710    -0.6370 h1         1 F0Q       0.085700
     58 H24          2.0260    -0.3490     2.4480 ha         1 F0Q       0.119000
     59 H25          1.5040     1.8740     3.3900 ha         1 F0Q       0.113000
     60 H26          2.5610     3.9220     2.4410 ha         1 F0Q       0.117000
     61 H27          4.1430     3.7260     0.5300 ha         1 F0Q       0.130000
@<TRIPOS>BOND
     1     1     2 2   
     2     2     3 1   
     3     2    19 1   
     4     3     4 1   
     5     3    12 1   
     6     4     5 1   
     7     4    35 1   
     8     4    36 1   
     9     5     6 ar  
    10     5    11 ar  
    11     6     7 ar  
    12     6    37 1   
    13     7     8 ar  
    14     7    38 1   
    15     8     9 1   
    16     8    10 ar  
    17     9    39 1   
    18     9    40 1   
    19    10    11 ar  
    20    10    41 1   
    21    11    42 1   
    22    12    13 1   
    23    12    43 1   
    24    12    44 1   
    25    13    14 1   
    26    13    18 2   
    27    14    15 2   
    28    15    16 1   
    29    16    17 1   
    30    16    18 1   
    31    17    45 1   
    32    17    46 1   
    33    17    47 1   
    34    19    20 1   
    35    19    48 1   
    36    20    21 1   
    37    20    49 1   
    38    20    50 1   
    39    21    22 2   
    40    21    23 1   
    41    23    24 1   
    42    23    27 1   
    43    24    25 1   
    44    24    51 1   
    45    24    52 1   
    46    25    26 1   
    47    25    53 1   
    48    25    54 1   
    49    26    27 1   
    50    26    55 1   
    51    26    56 1   
    52    27    28 1   
    53    27    57 1   
    54    28    29 ar  
    55    28    31 ar  
    56    29    30 1   
    57    29    34 ar  
    58    31    32 ar  
    59    31    58 1   
    60    32    33 ar  
    61    32    59 1   
    62    33    34 ar  
    63    33    60 1   
    64    34    61 1   
@<TRIPOS>SUBSTRUCTURE
     1 F0Q         1 TEMP              0 ****  ****    0 ROOT
