@<TRIPOS>MOLECULE
F0Q
   61    64     1     0     0
SMALL
bcc


@<TRIPOS>ATOM
      1 O           -2.4900    -3.4180    -0.3290 o          1 F0Q      -0.651100
      2 C11         -2.2560    -2.4690    -1.0710 c          1 F0Q       0.793100
      3 N1          -3.2570    -1.7910    -1.7190 n          1 F0Q      -0.470800
      4 C4          -4.6330    -1.9610    -1.2600 c3         1 F0Q       0.159300
      5 C5          -5.0070    -0.9420    -0.2160 ca         1 F0Q      -0.164300
      6 C6          -5.6180     0.2560    -0.5690 ca         1 F0Q      -0.068000
      7 C7          -5.7970     1.2790     0.3480 ca         1 F0Q      -0.202000
      8 C8          -5.3720     1.1280     1.6710 ca         1 F0Q       0.143600
      9 N2          -5.4590     2.1690     2.5720 nv         1 F0Q      -0.832200
     10 C9          -4.7980    -0.0950     2.0420 ca         1 F0Q      -0.202000
     11 C10         -4.6180    -1.1020     1.1110 ca         1 F0Q      -0.068000
     12 C3          -3.0030    -0.6310    -2.5380 c3         1 F0Q       0.077700
     13 C2          -2.8150     0.6440    -1.7750 cc         1 F0Q       0.454300
     14 N5          -3.1500     1.8510    -2.2520 nc         1 F0Q      -0.387000
     15 N6          -2.8680     2.7020    -1.3160 nd         1 F0Q      -0.180800
     16 N           -2.3770     2.0140    -0.3290 na         1 F0Q       0.293900
     17 C           -2.0060     2.6030     0.9380 c3         1 F0Q       0.039600
     18 N7          -2.3150     0.7300    -0.5620 nd         1 F0Q      -0.514800
     19 N3          -0.9840    -2.0730    -1.3340 ns         1 F0Q      -0.566900
     20 C12          0.1190    -2.6000    -0.5790 c3         1 F0Q       0.030000
     21 C13          1.2280    -1.5590    -0.5620 c          1 F0Q       0.653100
     22 O1           1.1530    -0.5420    -1.2380 o          1 F0Q      -0.600100
     23 N4           2.2690    -1.8070     0.2440 n          1 F0Q      -0.482800
     24 C14          2.5270    -3.0450     0.9720 c5         1 F0Q       0.102000
     25 C15          4.0460    -3.0660     1.0540 c5         1 F0Q      -0.095400
     26 C16          4.3930    -1.5920     1.2270 c5         1 F0Q      -0.088400
     27 C17          3.3770    -0.8620     0.3300 c5         1 F0Q       0.154000
     28 C18          2.9660     0.4720     0.9090 ca         1 F0Q      -0.049300
     29 C23          3.6280     1.6630     0.6230 ca         1 F0Q       0.000100
     30 BR           5.1000     1.6960    -0.5730 br         1 F0Q      -0.104100
     31 C19          1.9200     0.5380     1.8300 ca         1 F0Q      -0.112000
     32 C20          1.5410     1.7300     2.4230 ca         1 F0Q      -0.125000
     33 C21          2.2070     2.9050     2.1030 ca         1 F0Q      -0.128000
     34 C22          3.2580     2.8710     1.2020 ca         1 F0Q      -0.103000
     35 H1          -5.2860    -1.8690    -2.1310 h1         1 F0Q       0.067700
     36 H2          -4.7490    -2.9750    -0.8840 h1         1 F0Q       0.067700
     37 H3          -5.9440     0.4090    -1.5930 ha         1 F0Q       0.138500
     38 H4          -6.2610     2.2070     0.0340 ha         1 F0Q       0.131000
     39 H5          -5.4790     1.9050     3.5440 hn         1 F0Q       0.391800
     40 H6          -6.1500     2.8720     2.3630 hn         1 F0Q       0.391800
     41 H7          -4.4810    -0.2480     3.0670 ha         1 F0Q       0.131000
     42 H8          -4.1470    -2.0260     1.4260 ha         1 F0Q       0.138500
     43 H9          -2.1480    -0.8080    -3.1960 h1         1 F0Q       0.077700
     44 H10         -3.8470    -0.4940    -3.2160 h1         1 F0Q       0.077700
     45 H11         -2.7940     2.4330     1.6700 h1         1 F0Q       0.074700
     46 H12         -1.0790     2.1510     1.2770 h1         1 F0Q       0.074700
     47 H13         -1.8630     3.6690     0.7940 h1         1 F0Q       0.074700
     48 H14         -0.7930    -1.1670    -1.7330 hn         1 F0Q       0.339500
     49 H15         -0.1770    -2.8360     0.4470 h1         1 F0Q       0.067700
     50 H16          0.5000    -3.5300    -1.0130 h1         1 F0Q       0.067700
     51 H17          2.0790    -3.0130     1.9690 h1         1 F0Q       0.052200
     52 H18          2.1240    -3.9100     0.4460 h1         1 F0Q       0.052200
     53 H19          4.4080    -3.6850     1.8740 hc         1 F0Q       0.059200
     54 H20          4.4660    -3.4550     0.1240 hc         1 F0Q       0.059200
     55 H21          4.2530    -1.2940     2.2680 hc         1 F0Q       0.061700
     56 H22          5.4170    -1.3490     0.9480 hc         1 F0Q       0.061700
     57 H23          3.7920    -0.7250    -0.6710 h1         1 F0Q       0.085700
     58 H24          1.3880    -0.3690     2.0890 ha         1 F0Q       0.137000
     59 H25          0.7290     1.7390     3.1380 ha         1 F0Q       0.131000
     60 H26          1.9180     3.8450     2.5530 ha         1 F0Q       0.135000
     61 H27          3.7860     3.7830     0.9560 ha         1 F0Q       0.148000
@<TRIPOS>BOND
     1     1     2 2   
     2     2     3 1   
     3     2    19 1   
     4     3     4 1   
     5     3    12 1   
     6     4     5 1   
     7     4    35 1   
     8     4    36 1   
     9     5     6 ar  
    10     5    11 ar  
    11     6     7 ar  
    12     6    37 1   
    13     7     8 ar  
    14     7    38 1   
    15     8     9 1   
    16     8    10 ar  
    17     9    39 1   
    18     9    40 1   
    19    10    11 ar  
    20    10    41 1   
    21    11    42 1   
    22    12    13 1   
    23    12    43 1   
    24    12    44 1   
    25    13    14 1   
    26    13    18 2   
    27    14    15 2   
    28    15    16 1   
    29    16    17 1   
    30    16    18 1   
    31    17    45 1   
    32    17    46 1   
    33    17    47 1   
    34    19    20 1   
    35    19    48 1   
    36    20    21 1   
    37    20    49 1   
    38    20    50 1   
    39    21    22 2   
    40    21    23 1   
    41    23    24 1   
    42    23    27 1   
    43    24    25 1   
    44    24    51 1   
    45    24    52 1   
    46    25    26 1   
    47    25    53 1   
    48    25    54 1   
    49    26    27 1   
    50    26    55 1   
    51    26    56 1   
    52    27    28 1   
    53    27    57 1   
    54    28    29 ar  
    55    28    31 ar  
    56    29    30 1   
    57    29    34 ar  
    58    31    32 ar  
    59    31    58 1   
    60    32    33 ar  
    61    32    59 1   
    62    33    34 ar  
    63    33    60 1   
    64    34    61 1   
@<TRIPOS>SUBSTRUCTURE
     1 F0Q         1 TEMP              0 ****  ****    0 ROOT
