@<TRIPOS>MOLECULE
F0R
   31    32     1     0     0
SMALL
No Charge or Current Charge


@<TRIPOS>ATOM
      1 C1           5.8160    33.7930     2.9670 c3         1 F0R      -0.052800
      2 C10         10.5480    34.6220    -1.3870 cc         1 F0R       0.107300
      3 C11         11.7420    34.2800    -0.8120 cd         1 F0R      -0.171000
      4 C12         12.5040    33.6260    -1.8010 cd         1 F0R      -0.181000
      5 C13         11.7470    33.5960    -2.9400 cc         1 F0R       0.124900
      6 C2           6.8940    33.2350     3.8940 ca         1 F0R      -0.045300
      7 C3           6.4950    32.4310     4.9810 ca         1 F0R      -0.107000
      8 C4           7.4430    31.9350     5.8920 ca         1 F0R      -0.096000
      9 C5           8.8010    32.2460     5.7280 ca         1 F0R      -0.108000
     10 C6           9.2110    33.0440     4.6480 ca         1 F0R      -0.094000
     11 C7           8.2710    33.5270     3.7180 ca         1 F0R       0.046600
     12 C8           8.6870    34.1540     1.2990 cs         1 F0R       0.478400
     13 C9           9.3440    35.3410    -0.8320 c3         1 F0R       0.086700
     14 N1           8.7450    34.3270     2.6530 ns         1 F0R      -0.381100
     15 N2           9.2080    35.2220     0.6260 ns         1 F0R      -0.459900
     16 O1          10.5360    34.2100    -2.7020 os         1 F0R      -0.237000
     17 S1           8.1220    32.7690     0.5500 s          1 F0R      -0.638400
     18 H1           5.6160    33.1050     2.1370 hc         1 F0R       0.049033
     19 H2           4.8710    33.9420     3.5030 hc         1 F0R       0.049033
     20 H3           6.0970    34.7640     2.5450 hc         1 F0R       0.049033
     21 H4          12.0390    34.4780     0.2130 ha         1 F0R       0.137000
     22 H5          13.5040    33.2190    -1.6890 ha         1 F0R       0.141000
     23 H6          11.9320    33.1980    -3.9290 h4         1 F0R       0.053100
     24 H7           5.4430    32.1950     5.1270 ha         1 F0R       0.116000
     25 H8           7.1230    31.3170     6.7280 ha         1 F0R       0.116000
     26 H9           9.5360    31.8700     6.4370 ha         1 F0R       0.118000
     27 H10         10.2650    33.2780     4.5240 ha         1 F0R       0.118000
     28 H11          9.4220    36.4050    -1.0920 h1         1 F0R       0.085200
     29 H12          8.4380    34.9510    -1.3130 h1         1 F0R       0.085200
     30 H13          9.1990    35.1790     2.9550 hn         1 F0R       0.307500
     31 H14          9.5330    36.0040     1.1830 hn         1 F0R       0.303500
@<TRIPOS>BOND
     1     1     6 1   
     2     1    18 1   
     3     1    19 1   
     4     1    20 1   
     5     2     3 2   
     6     2    13 1   
     7     2    16 1   
     8     3     4 1   
     9     3    21 1   
    10     4     5 2   
    11     4    22 1   
    12     5    16 1   
    13     5    23 1   
    14     6     7 ar  
    15     6    11 ar  
    16     7     8 ar  
    17     7    24 1   
    18     8     9 ar  
    19     8    25 1   
    20     9    10 ar  
    21     9    26 1   
    22    10    11 ar  
    23    10    27 1   
    24    11    14 1   
    25    12    14 1   
    26    12    15 1   
    27    12    17 2   
    28    13    15 1   
    29    13    28 1   
    30    13    29 1   
    31    14    30 1   
    32    15    31 1   
@<TRIPOS>SUBSTRUCTURE
     1 F0R         1 TEMP              0 ****  ****    0 ROOT
