@<TRIPOS>MOLECULE
F0R
   31    32     1     0     0
SMALL
bcc


@<TRIPOS>ATOM
      1 C1           5.8310    34.1360     3.2010 c3         1 F0R      -0.052800
      2 C10         10.5170    34.4630    -1.3270 cc         1 F0R       0.217000
      3 C11         11.6310    34.1800    -0.6110 cd         1 F0R      -0.254300
      4 C12         12.6050    33.7290    -1.5560 cd         1 F0R      -0.264300
      5 C13         12.0040    33.7750    -2.7650 cc         1 F0R       0.234600
      6 C2           6.8970    33.4110     3.9640 ca         1 F0R      -0.045300
      7 C3           6.5730    32.5560     5.0140 ca         1 F0R      -0.125000
      8 C4           7.5540    31.8830     5.7290 ca         1 F0R      -0.114000
      9 C5           8.8920    32.0570     5.4060 ca         1 F0R      -0.126000
     10 C6           9.2350    32.9010     4.3590 ca         1 F0R      -0.112000
     11 C7           8.2480    33.5630     3.6420 ca         1 F0R       0.046600
     12 C8           8.6460    34.1310     1.2980 cs         1 F0R       0.612400
     13 C9           9.1690    34.9840    -0.9520 c3         1 F0R       0.086700
     14 N1           8.6360    34.4500     2.6040 ns         1 F0R      -0.448100
     15 N2           9.0260    35.1180     0.4720 ns         1 F0R      -0.526900
     16 O1          10.7330    34.2210    -2.6350 os         1 F0R      -0.325800
     17 S1           8.2040    32.6050     0.7470 s          1 F0R      -0.638400
     18 H1           5.7780    33.7780     2.1710 hc         1 F0R       0.049033
     19 H2           4.8540    33.9850     3.6590 hc         1 F0R       0.049033
     20 H3           6.0220    35.2090     3.1600 hc         1 F0R       0.049033
     21 H4          11.7500    34.2760     0.4560 ha         1 F0R       0.155000
     22 H5          13.6160    33.4120    -1.3550 ha         1 F0R       0.159000
     23 H6          12.3320    33.5340    -3.7640 h4         1 F0R       0.053100
     24 H7           5.5310    32.4200     5.2780 ha         1 F0R       0.134000
     25 H8           7.2720    31.2260     6.5410 ha         1 F0R       0.134000
     26 H9           9.6630    31.5410     5.9610 ha         1 F0R       0.136000
     27 H10         10.2730    33.0470     4.0900 ha         1 F0R       0.136000
     28 H11          9.0050    35.9700    -1.3940 h1         1 F0R       0.085200
     29 H12          8.3850    34.3280    -1.3350 h1         1 F0R       0.085200
     30 H13          8.9540    35.3680     2.8870 hn         1 F0R       0.307500
     31 H14          9.2950    36.0070     0.8670 hn         1 F0R       0.303500
@<TRIPOS>BOND
     1     1     6 1   
     2     1    18 1   
     3     1    19 1   
     4     1    20 1   
     5     2     3 2   
     6     2    13 1   
     7     2    16 1   
     8     3     4 1   
     9     3    21 1   
    10     4     5 2   
    11     4    22 1   
    12     5    16 1   
    13     5    23 1   
    14     6     7 ar  
    15     6    11 ar  
    16     7     8 ar  
    17     7    24 1   
    18     8     9 ar  
    19     8    25 1   
    20     9    10 ar  
    21     9    26 1   
    22    10    11 ar  
    23    10    27 1   
    24    11    14 1   
    25    12    14 1   
    26    12    15 1   
    27    12    17 2   
    28    13    15 1   
    29    13    28 1   
    30    13    29 1   
    31    14    30 1   
    32    15    31 1   
@<TRIPOS>SUBSTRUCTURE
     1 F0R         1 TEMP              0 ****  ****    0 ROOT
