@<TRIPOS>MOLECULE
F0S
   68    72     1     0     0
SMALL
abcg2


@<TRIPOS>ATOM
      1 O4          -2.3350    -1.9740    -0.3840 o          1 F0S      -0.578100
      2 C21         -1.2340    -1.7130    -0.8410 c          1 F0S       0.633300
      3 N3          -0.8260    -0.4440    -1.0910 ns         1 F0S      -0.171000
      4 C22         -1.6190     0.7080    -0.8750 ca         1 F0S      -0.072000
      5 C28         -1.8210     1.5890    -1.9100 ca         1 F0S      -0.051000
      6 C27         -2.5270     2.7680    -1.6470 ca         1 F0S      -0.226900
      7 C26         -2.9230     3.9060    -2.3990 cc         1 F0S       0.345800
      8 N5          -3.5820     4.7530    -1.6460 nd         1 F0S      -0.516100
      9 N4          -3.6390     4.2210    -0.4240 na         1 F0S      -0.061400
     10 C25         -3.0190     3.0200    -0.3560 ca         1 F0S      -0.044200
     11 C24         -2.8280     2.1200     0.6990 ca         1 F0S      -0.113000
     12 C23         -2.1250     0.9740     0.4190 ca         1 F0S      -0.068000
     13 C20         -0.2230    -2.7730    -1.0660 ce         1 F0S      -0.302400
     14 C18          0.4910    -2.9210    -2.1940 c2         1 F0S       0.109400
     15 C19          0.3890    -2.0800    -3.4270 c3         1 F0S      -0.080900
     16 N2           1.4050    -3.9480    -2.3000 ns         1 F0S      -0.432100
     17 C17          1.7510    -4.7860    -1.2670 c          1 F0S       0.618000
     18 O3           2.6380    -5.6160    -1.3900 o          1 F0S      -0.579000
     19 N1           1.0590    -4.6000    -0.1250 ns         1 F0S      -0.513900
     20 C16         -0.1240    -3.7750     0.0590 c6         1 F0S       0.254200
     21 C12         -0.0370    -3.0880     1.4070 ca         1 F0S      -0.134300
     22 C11          0.7580    -1.9620     1.5560 ca         1 F0S      -0.042000
     23 C13         -0.7340    -3.5610     2.5100 ca         1 F0S      -0.047000
     24 C14         -0.6290    -2.9310     3.7440 ca         1 F0S      -0.163000
     25 C15          0.1740    -1.8140     3.8550 ca         1 F0S       0.224000
     26 F            0.2630    -1.1830     5.0330 f          1 F0S      -0.161000
     27 C10          0.8640    -1.2990     2.7710 ca         1 F0S      -0.200600
     28 C9           1.7320    -0.0810     2.8490 c          1 F0S       0.628700
     29 O2           2.7380    -0.0330     3.5360 o          1 F0S      -0.575100
     30 N            1.3060     0.9060     2.0460 ns         1 F0S      -0.498900
     31 C8           2.1280     2.0080     1.5780 c3         1 F0S       0.170300
     32 C7           2.0030     2.1110     0.0810 ca         1 F0S      -0.194300
     33 C1           1.3010     3.1570    -0.5280 ca         1 F0S       0.189600
     34 O            0.7970     4.0910     0.2950 os         1 F0S      -0.336100
     35 C            0.1240     5.2050    -0.2570 c3         1 F0S       0.145900
     36 C5           2.5410     1.1010    -0.7290 ca         1 F0S       0.189600
     37 O1           3.1980     0.1220    -0.0770 os         1 F0S      -0.336100
     38 C6           3.8240    -0.9020    -0.8220 c3         1 F0S       0.145900
     39 C4           2.3780     1.1250    -2.1130 ca         1 F0S      -0.247000
     40 C3           1.6790     2.1800    -2.6840 ca         1 F0S      -0.034000
     41 C2           1.1460     3.1980    -1.9150 ca         1 F0S      -0.247000
     42 H1           0.1090    -0.2930    -1.4370 hn         1 F0S       0.159000
     43 H2          -1.4350     1.3790    -2.8990 ha         1 F0S       0.120000
     44 H3          -2.7440     4.1180    -3.4420 h4         1 F0S       0.049800
     45 H5          -3.2060     2.3160     1.6930 ha         1 F0S       0.128000
     46 H6          -1.9550     0.2560     1.2120 ha         1 F0S       0.131000
     47 H8           1.2520    -1.4180    -3.5260 hc         1 F0S       0.062367
     48 H9           0.3750    -2.7210    -4.3100 hc         1 F0S       0.062367
     49 H10         -0.5130    -1.4770    -3.4470 hc         1 F0S       0.062367
     50 H11          1.2700    -5.2530     0.6150 hn         1 F0S       0.336500
     51 H12         -1.0200    -4.4100     0.0640 h1         1 F0S       0.071700
     52 H13          1.3140    -1.5830     0.7070 ha         1 F0S       0.127000
     53 H14         -1.3770    -4.4270     2.4130 ha         1 F0S       0.122000
     54 H15         -1.1780    -3.2940     4.6030 ha         1 F0S       0.138000
     55 H16          0.4220     0.7810     1.5770 hn         1 F0S       0.313500
     56 H17          1.8310     2.9370     2.0620 h1         1 F0S       0.072700
     57 H18          3.1580     1.8120     1.8760 h1         1 F0S       0.072700
     58 H19         -0.7790     4.9110    -0.7970 h1         1 F0S       0.045533
     59 H20         -0.1610     5.8370     0.5820 h1         1 F0S       0.045533
     60 H21          0.7670     5.7790    -0.9280 h1         1 F0S       0.045533
     61 H22          4.5770    -0.5070    -1.5080 h1         1 F0S       0.045533
     62 H23          4.3100    -1.5540    -0.1010 h1         1 F0S       0.045533
     63 H24          3.1060    -1.4940    -1.3980 h1         1 F0S       0.045533
     64 H25          2.8070     0.3640    -2.7500 ha         1 F0S       0.122000
     65 H26          1.5500     2.2070    -3.7580 ha         1 F0S       0.111000
     66 H27          0.6020     3.9960    -2.3980 ha         1 F0S       0.122000
     67 H4          -4.1100     4.7180     0.3140 hn         1 F0S       0.379000
     68 H7           1.9210    -4.0600    -3.1590 hn         1 F0S       0.340500
@<TRIPOS>BOND
     1     1     2 2   
     2     2     3 1   
     3     2    13 1   
     4     3     4 1   
     5     3    42 1   
     6     4     5 ar  
     7     4    12 ar  
     8     5     6 ar  
     9     5    43 1   
    10     6     7 1   
    11     6    10 ar  
    12     7     8 2   
    13     7    44 1   
    14     8     9 1   
    15     9    10 1   
    16     9    67 1   
    17    10    11 ar  
    18    11    12 ar  
    19    11    45 1   
    20    12    46 1   
    21    13    14 2   
    22    13    20 1   
    23    14    15 1   
    24    14    16 1   
    25    15    47 1   
    26    15    48 1   
    27    15    49 1   
    28    16    17 1   
    29    16    68 1   
    30    17    18 2   
    31    17    19 1   
    32    19    20 1   
    33    19    50 1   
    34    20    21 1   
    35    20    51 1   
    36    21    22 ar  
    37    21    23 ar  
    38    22    27 ar  
    39    22    52 1   
    40    23    24 ar  
    41    23    53 1   
    42    24    25 ar  
    43    24    54 1   
    44    25    26 1   
    45    25    27 ar  
    46    27    28 1   
    47    28    29 2   
    48    28    30 1   
    49    30    31 1   
    50    30    55 1   
    51    31    32 1   
    52    31    56 1   
    53    31    57 1   
    54    32    33 ar  
    55    32    36 ar  
    56    33    34 1   
    57    33    41 ar  
    58    34    35 1   
    59    35    58 1   
    60    35    59 1   
    61    35    60 1   
    62    36    37 1   
    63    36    39 ar  
    64    37    38 1   
    65    38    61 1   
    66    38    62 1   
    67    38    63 1   
    68    39    40 ar  
    69    39    64 1   
    70    40    41 ar  
    71    40    65 1   
    72    41    66 1   
@<TRIPOS>SUBSTRUCTURE
     1 F0S         1 TEMP              0 ****  ****    0 ROOT
