@<TRIPOS>MOLECULE
F0S
   68    72     1     0     0
SMALL
No Charge or Current Charge


@<TRIPOS>ATOM
      1 O4          -2.4560    -1.7450     0.4380 o          1 F0S      -0.578100
      2 C21         -1.5980    -1.6620    -0.4310 c          1 F0S       0.633300
      3 N3          -1.4560    -0.5360    -1.2310 ns         1 F0S      -0.171000
      4 C22         -2.0910     0.7380    -1.2280 ca         1 F0S      -0.072000
      5 C28         -1.7810     1.6150    -2.2940 ca         1 F0S      -0.051000
      6 C27         -2.3760     2.8830    -2.2980 ca         1 F0S      -0.226900
      7 C26         -2.2650     3.9960    -3.2070 cc         1 F0S       0.345800
      8 N5          -3.0100     5.0400    -2.8050 nd         1 F0S      -0.516100
      9 N4          -3.6060     4.5760    -1.6220 na         1 F0S      -0.061400
     10 C25         -3.2230     3.2870    -1.3200 ca         1 F0S      -0.044200
     11 C24         -3.5560     2.4620    -0.2420 ca         1 F0S      -0.113000
     12 C23         -2.9790     1.1720    -0.2000 ca         1 F0S      -0.068000
     13 C20         -0.6130    -2.7840    -0.6670 ce         1 F0S      -0.302400
     14 C18          0.2630    -2.8960    -1.7030 c2         1 F0S       0.109400
     15 C19          0.4660    -1.9870    -2.9060 c3         1 F0S      -0.080900
     16 N2           1.1180    -3.9970    -1.7610 ns         1 F0S      -0.432100
     17 C17          1.1270    -5.0610    -0.9100 c          1 F0S       0.618000
     18 O3           1.8620    -6.0170    -1.0660 o          1 F0S      -0.579000
     19 N1           0.2470    -4.9810     0.1270 ns         1 F0S      -0.513900
     20 C16         -0.5960    -3.8350     0.4600 c6         1 F0S       0.254200
     21 C12         -0.0850    -3.2500     1.7860 ca         1 F0S      -0.134300
     22 C11          0.8010    -2.1540     1.7910 ca         1 F0S      -0.042000
     23 C13         -0.5140    -3.7910     3.0120 ca         1 F0S      -0.047000
     24 C14         -0.0640    -3.2350     4.2210 ca         1 F0S      -0.163000
     25 C15          0.7930    -2.1220     4.2190 ca         1 F0S       0.224000
     26 F            1.1560    -1.5870     5.4060 f          1 F0S      -0.161000
     27 C10          1.2200    -1.5520     3.0010 ca         1 F0S      -0.200600
     28 C9           2.0780    -0.3130     2.9650 c          1 F0S       0.628700
     29 O2           2.8440     0.0160     3.8580 o          1 F0S      -0.575100
     30 N            1.9590     0.4170     1.8070 ns         1 F0S      -0.498900
     31 C8           2.7250     1.6050     1.4640 c3         1 F0S       0.170300
     32 C7           2.3390     2.0570     0.0580 ca         1 F0S      -0.194300
     33 C1           1.3810     3.0770    -0.1310 ca         1 F0S       0.189600
     34 O            0.8090     3.6620     0.9830 os         1 F0S      -0.336100
     35 C           -0.2630     4.6160     0.8870 c3         1 F0S       0.145900
     36 C5           2.9040     1.4140    -1.0660 ca         1 F0S       0.189600
     37 O1           3.8100     0.3920    -0.8530 os         1 F0S      -0.336100
     38 C6           4.3880    -0.3660    -1.9290 c3         1 F0S       0.145900
     39 C4           2.5250     1.8080    -2.3660 ca         1 F0S      -0.247000
     40 C3           1.5900     2.8350    -2.5500 ca         1 F0S      -0.034000
     41 C2           1.0190     3.4660    -1.4370 ca         1 F0S      -0.247000
     42 H1          -0.7240    -0.6140    -1.9200 hn         1 F0S       0.159000
     43 H2          -1.0970     1.3210    -3.0870 ha         1 F0S       0.120000
     44 H3          -1.6930     4.1110    -4.1180 h4         1 F0S       0.049800
     45 H5          -4.2300     2.8010     0.5420 ha         1 F0S       0.128000
     46 H6          -3.2220     0.5340     0.6440 ha         1 F0S       0.131000
     47 H8           0.9050    -1.0270    -2.6060 hc         1 F0S       0.062367
     48 H9           1.1420    -2.4230    -3.6520 hc         1 F0S       0.062367
     49 H10         -0.4810    -1.7920    -3.4220 hc         1 F0S       0.062367
     50 H11          0.2500    -5.7680     0.7610 hn         1 F0S       0.336500
     51 H12         -1.6190    -4.2140     0.6080 h1         1 F0S       0.071700
     52 H13          1.1650    -1.7700     0.8420 ha         1 F0S       0.127000
     53 H14         -1.1960    -4.6400     3.0290 ha         1 F0S       0.122000
     54 H15         -0.3960    -3.6540     5.1670 ha         1 F0S       0.138000
     55 H16          1.2770     0.0950     1.1370 hn         1 F0S       0.313500
     56 H17          2.5270     2.3920     2.2040 h1         1 F0S       0.072700
     57 H18          3.7970     1.3700     1.5080 h1         1 F0S       0.072700
     58 H19         -1.1270     4.1790     0.3710 h1         1 F0S       0.045533
     59 H20         -0.5850     4.9270     1.8880 h1         1 F0S       0.045533
     60 H21          0.0580     5.5120     0.3410 h1         1 F0S       0.045533
     61 H22          4.9650     0.2840    -2.5990 h1         1 F0S       0.045533
     62 H23          5.0660    -1.1320    -1.5320 h1         1 F0S       0.045533
     63 H24          3.6080    -0.8730    -2.5120 h1         1 F0S       0.045533
     64 H25          2.9450     1.3310    -3.2470 ha         1 F0S       0.122000
     65 H26          1.3020     3.1370    -3.5550 ha         1 F0S       0.111000
     66 H27          0.2910     4.2520    -1.6100 ha         1 F0S       0.122000
     67 H4          -4.2440     5.1570    -1.0800 hn         1 F0S       0.379000
     68 H7           1.7730    -4.0620    -2.5290 hn         1 F0S       0.340500
@<TRIPOS>BOND
     1     1     2 2   
     2     2     3 1   
     3     2    13 1   
     4     3     4 1   
     5     3    42 1   
     6     4     5 ar  
     7     4    12 ar  
     8     5     6 ar  
     9     5    43 1   
    10     6     7 1   
    11     6    10 ar  
    12     7     8 2   
    13     7    44 1   
    14     8     9 1   
    15     9    10 1   
    16     9    67 1   
    17    10    11 ar  
    18    11    12 ar  
    19    11    45 1   
    20    12    46 1   
    21    13    14 2   
    22    13    20 1   
    23    14    15 1   
    24    14    16 1   
    25    15    47 1   
    26    15    48 1   
    27    15    49 1   
    28    16    17 1   
    29    16    68 1   
    30    17    18 2   
    31    17    19 1   
    32    19    20 1   
    33    19    50 1   
    34    20    21 1   
    35    20    51 1   
    36    21    22 ar  
    37    21    23 ar  
    38    22    27 ar  
    39    22    52 1   
    40    23    24 ar  
    41    23    53 1   
    42    24    25 ar  
    43    24    54 1   
    44    25    26 1   
    45    25    27 ar  
    46    27    28 1   
    47    28    29 2   
    48    28    30 1   
    49    30    31 1   
    50    30    55 1   
    51    31    32 1   
    52    31    56 1   
    53    31    57 1   
    54    32    33 ar  
    55    32    36 ar  
    56    33    34 1   
    57    33    41 ar  
    58    34    35 1   
    59    35    58 1   
    60    35    59 1   
    61    35    60 1   
    62    36    37 1   
    63    36    39 ar  
    64    37    38 1   
    65    38    61 1   
    66    38    62 1   
    67    38    63 1   
    68    39    40 ar  
    69    39    64 1   
    70    40    41 ar  
    71    40    65 1   
    72    41    66 1   
@<TRIPOS>SUBSTRUCTURE
     1 F0S         1 TEMP              0 ****  ****    0 ROOT
