@<TRIPOS>MOLECULE
F0T
   45    46     1     0     0
SMALL
abcg2


@<TRIPOS>ATOM
      1 O1          -3.8070    -0.3370     1.0410 o          1 F0T      -0.499000
      2 C2          -3.7970     0.5230     0.1960 c          1 F0T       0.585100
      3 O           -4.8150     1.3170    -0.0730 os         1 F0T      -0.446100
      4 C1          -6.0310     1.1430     0.6760 c3         1 F0T       0.168600
      5 C           -7.0390     2.1370     0.1550 c3         1 F0T      -0.098100
      6 C3          -2.6300     0.8210    -0.7130 c3         1 F0T       0.048000
      7 N           -1.5000     0.0150    -0.3410 ns         1 F0T      -0.508900
      8 C4          -0.3170     0.1690    -1.0010 c          1 F0T       0.656100
      9 O2          -0.1760     1.0440    -1.8530 o          1 F0T      -0.652100
     10 N1           0.6840    -0.6780    -0.6380 n          1 F0T      -0.422800
     11 C5           0.6200    -1.5760     0.5010 c3         1 F0T       0.128000
     12 C6           0.0110    -2.9240     0.1910 cx         1 F0T      -0.157700
     13 C7          -1.3920    -3.2780     0.6010 cx         1 F0T      -0.131400
     14 C8          -0.2210    -3.8960     1.3020 cx         1 F0T      -0.131400
     15 C9           1.9250    -0.6900    -1.3950 c3         1 F0T       0.166300
     16 C10          3.0640    -0.0090    -0.6830 ca         1 F0T      -0.160300
     17 C11          4.1730    -0.7270    -0.2470 ca         1 F0T      -0.054500
     18 C12          5.2230    -0.1120     0.4180 ca         1 F0T      -0.183000
     19 C13          5.1960     1.2620     0.6730 ca         1 F0T       0.293000
     20 N2           6.2580     1.8960     1.2840 nv         1 F0T      -1.072000
     21 C14          4.0790     1.9890     0.2370 ca         1 F0T      -0.183000
     22 C15          3.0410     1.3610    -0.4260 ca         1 F0T      -0.054500
     23 H1          -6.3910     0.1190     0.5540 h1         1 F0T       0.049700
     24 H2          -5.8320     1.3070     1.7370 h1         1 F0T       0.049700
     25 H3          -7.9690     2.0230     0.7100 hc         1 F0T       0.048700
     26 H4          -6.6950     3.1630     0.2860 hc         1 F0T       0.048700
     27 H5          -7.2560     1.9730    -0.9010 hc         1 F0T       0.048700
     28 H6          -2.9560     0.6490    -1.7460 h1         1 F0T       0.080700
     29 H7          -2.3890     1.8830    -0.6380 h1         1 F0T       0.080700
     30 H8          -1.7150    -0.8740     0.0800 hn         1 F0T       0.329500
     31 H9           1.6460    -1.7170     0.8490 h1         1 F0T       0.058700
     32 H10          0.0980    -1.0990     1.3360 h1         1 F0T       0.058700
     33 H11          0.3470    -3.3540    -0.7480 hc         1 F0T       0.082700
     34 H12         -1.9740    -2.5580     1.1670 hc         1 F0T       0.075450
     35 H13         -1.9820    -3.8910    -0.0680 hc         1 F0T       0.075450
     36 H14         -0.0010    -4.9400     1.1260 hc         1 F0T       0.075450
     37 H15         -0.0140    -3.5620     2.3130 hc         1 F0T       0.075450
     38 H16          2.1960    -1.7290    -1.5990 h1         1 F0T       0.061200
     39 H17          1.7430    -0.2240    -2.3620 h1         1 F0T       0.061200
     40 H18          4.2230    -1.7950    -0.4290 ha         1 F0T       0.117000
     41 H19          6.0700    -0.7030     0.7480 ha         1 F0T       0.111500
     42 H20          6.0410     2.7650     1.7440 hn         1 F0T       0.446500
     43 H21          6.8450     1.3090     1.8560 hn         1 F0T       0.446500
     44 H22          4.0320     3.0560     0.4200 ha         1 F0T       0.111500
     45 H23          2.1930     1.9510    -0.7540 ha         1 F0T       0.117000
@<TRIPOS>BOND
     1     1     2 2   
     2     2     3 1   
     3     2     6 1   
     4     3     4 1   
     5     4     5 1   
     6     4    23 1   
     7     4    24 1   
     8     5    25 1   
     9     5    26 1   
    10     5    27 1   
    11     6     7 1   
    12     6    28 1   
    13     6    29 1   
    14     7     8 1   
    15     7    30 1   
    16     8     9 2   
    17     8    10 1   
    18    10    11 1   
    19    10    15 1   
    20    11    12 1   
    21    11    31 1   
    22    11    32 1   
    23    12    13 1   
    24    12    14 1   
    25    12    33 1   
    26    13    14 1   
    27    13    34 1   
    28    13    35 1   
    29    14    36 1   
    30    14    37 1   
    31    15    16 1   
    32    15    38 1   
    33    15    39 1   
    34    16    17 ar  
    35    16    22 ar  
    36    17    18 ar  
    37    17    40 1   
    38    18    19 ar  
    39    18    41 1   
    40    19    20 1   
    41    19    21 ar  
    42    20    42 1   
    43    20    43 1   
    44    21    22 ar  
    45    21    44 1   
    46    22    45 1   
@<TRIPOS>SUBSTRUCTURE
     1 F0T         1 TEMP              0 ****  ****    0 ROOT
