@<TRIPOS>MOLECULE
F0T
   45    46     1     0     0
SMALL
No Charge or Current Charge


@<TRIPOS>ATOM
      1 O1          -3.6600    -0.1870     1.2520 o          1 F0T      -0.499000
      2 C2          -3.7440     0.5840     0.3020 c          1 F0T       0.585100
      3 O           -4.8590     1.3250     0.0050 os         1 F0T      -0.446100
      4 C1          -6.0060     1.1910     0.8620 c3         1 F0T       0.168600
      5 C           -7.1020     2.1170     0.3120 c3         1 F0T      -0.098100
      6 C3          -2.6080     0.8400    -0.7110 c3         1 F0T       0.048000
      7 N           -1.4150     0.0100    -0.4350 ns         1 F0T      -0.508900
      8 C4          -0.2390     0.0790    -1.1350 c          1 F0T       0.656100
      9 O2          -0.1040     0.8600    -2.0640 o          1 F0T      -0.652100
     10 N1           0.7840    -0.7950    -0.7210 n          1 F0T      -0.422800
     11 C5           0.6320    -1.7280     0.4220 c3         1 F0T       0.128000
     12 C6          -0.0760    -3.0220     0.0340 cx         1 F0T      -0.157700
     13 C7          -1.5320    -3.2670     0.3650 cx         1 F0T      -0.131400
     14 C8          -0.4530    -4.0350     1.0900 cx         1 F0T      -0.131400
     15 C9           2.0910    -0.8030    -1.4140 c3         1 F0T       0.166300
     16 C10          3.1690    -0.0350    -0.6580 ca         1 F0T      -0.160300
     17 C11          4.1650    -0.7250     0.0600 ca         1 F0T      -0.054500
     18 C12          5.1540    -0.0100     0.7590 ca         1 F0T      -0.183000
     19 C13          5.1540     1.3920     0.7440 ca         1 F0T       0.293000
     20 N2           6.1170     2.0840     1.4250 nv         1 F0T      -1.072000
     21 C14          4.1660     2.0820     0.0300 ca         1 F0T      -0.183000
     22 C15          3.1740     1.3730    -0.6700 ca         1 F0T      -0.054500
     23 H1          -6.3720     0.1560     0.8710 h1         1 F0T       0.049700
     24 H2          -5.7620     1.4840     1.8930 h1         1 F0T       0.049700
     25 H3          -8.0020     2.0510     0.9350 hc         1 F0T       0.048700
     26 H4          -6.7610     3.1600     0.3090 hc         1 F0T       0.048700
     27 H5          -7.3700     1.8320    -0.7120 hc         1 F0T       0.048700
     28 H6          -2.9900     0.6190    -1.7150 h1         1 F0T       0.080700
     29 H7          -2.3430     1.9030    -0.6640 h1         1 F0T       0.080700
     30 H8          -1.4620    -0.6740     0.3090 hn         1 F0T       0.329500
     31 H9           1.6300    -1.9840     0.8020 h1         1 F0T       0.058700
     32 H10          0.1050    -1.2320     1.2480 h1         1 F0T       0.058700
     33 H11          0.2950    -3.4310    -0.9040 hc         1 F0T       0.082700
     34 H12         -2.0760    -2.5210     0.9380 hc         1 F0T       0.075450
     35 H13         -2.1340    -3.8030    -0.3650 hc         1 F0T       0.075450
     36 H14         -0.3310    -5.0890     0.8490 hc         1 F0T       0.075450
     37 H15         -0.2660    -3.7830     2.1320 hc         1 F0T       0.075450
     38 H16          2.4110    -1.8450    -1.5450 h1         1 F0T       0.061200
     39 H17          1.9890    -0.3830    -2.4230 h1         1 F0T       0.061200
     40 H18          4.1740    -1.8130     0.0790 ha         1 F0T       0.117000
     41 H19          5.9180    -0.5510     1.3100 ha         1 F0T       0.111500
     42 H20          6.0330     3.0930     1.5340 hn         1 F0T       0.446500
     43 H21          6.7450     1.5910     2.0580 hn         1 F0T       0.446500
     44 H22          4.1610     3.1690     0.0140 ha         1 F0T       0.111500
     45 H23          2.4090     1.9180    -1.2210 ha         1 F0T       0.117000
@<TRIPOS>BOND
     1     1     2 2   
     2     2     3 1   
     3     2     6 1   
     4     3     4 1   
     5     4     5 1   
     6     4    23 1   
     7     4    24 1   
     8     5    25 1   
     9     5    26 1   
    10     5    27 1   
    11     6     7 1   
    12     6    28 1   
    13     6    29 1   
    14     7     8 1   
    15     7    30 1   
    16     8     9 2   
    17     8    10 1   
    18    10    11 1   
    19    10    15 1   
    20    11    12 1   
    21    11    31 1   
    22    11    32 1   
    23    12    13 1   
    24    12    14 1   
    25    12    33 1   
    26    13    14 1   
    27    13    34 1   
    28    13    35 1   
    29    14    36 1   
    30    14    37 1   
    31    15    16 1   
    32    15    38 1   
    33    15    39 1   
    34    16    17 ar  
    35    16    22 ar  
    36    17    18 ar  
    37    17    40 1   
    38    18    19 ar  
    39    18    41 1   
    40    19    20 1   
    41    19    21 ar  
    42    20    42 1   
    43    20    43 1   
    44    21    22 ar  
    45    21    44 1   
    46    22    45 1   
@<TRIPOS>SUBSTRUCTURE
     1 F0T         1 TEMP              0 ****  ****    0 ROOT
