@<TRIPOS>MOLECULE
F0U
   42    44     1     0     0
SMALL
bcc


@<TRIPOS>ATOM
      1 CAA        254.7660   210.0150   304.7960 c3         1 F0U      -0.049800
      2 CAB        255.9550   210.4720   304.0060 ca         1 F0U      -0.092300
      3 CAC        257.1990   209.8840   304.2030 ca         1 F0U      -0.096000
      4 CAD        258.2850   210.2840   303.4460 ca         1 F0U       0.015400
      5 CAF        258.1640   211.2790   302.4920 ca         1 F0U      -0.094000
      6 CAG        256.9340   211.8950   302.3010 ca         1 F0U      -0.133600
      7 CAH        256.8460   213.0620   301.3610 c          1 F0U       0.685700
      8 CAJ        257.3710   213.8800   299.1320 c3         1 F0U       0.092300
      9 CAL        255.8320   211.4880   303.0550 ca         1 F0U       0.096600
     10 CAN        253.9660   212.1760   301.6670 c          1 F0U       0.721700
     11 CAO        252.6810   212.9050   301.6860 cc         1 F0U      -0.138900
     12 CAP        252.2290   213.9280   302.4830 cd         1 F0U      -0.236300
     13 CAQ        250.9870   214.2570   301.9220 cd         1 F0U       0.347500
     14 CAU        251.6990   211.7190   299.7170 ca         1 F0U       0.536800
     15 CAV        251.6710   210.3650   300.0280 ca         1 F0U      -0.075900
     16 CAX        251.6320   209.4520   298.9880 ca         1 F0U      -0.076000
     17 CAY        251.5990   209.9320   297.6900 ca         1 F0U      -0.231300
     18 CAZ        251.6040   211.3030   297.4870 ca         1 F0U       0.425200
     19 NAI        257.3900   212.8620   300.1560 ns         1 F0U      -0.554900
     20 NAM        254.5680   212.0750   302.8690 ns         1 F0U      -0.467100
     21 NAS        250.6910   213.5140   300.8820 nc         1 F0U      -0.435800
     22 NAT        251.7300   212.6970   300.7420 na         1 F0U       0.093600
     23 NBA        251.6580   212.1740   298.4860 nb         1 F0U      -0.633000
     24 OAK        256.3520   214.1230   301.7120 o          1 F0U      -0.596100
     25 OBB        254.4190   211.7230   300.6330 o          1 F0U      -0.582100
     26 BR         249.8190   215.5780   302.5050 br         1 F0U      -0.110200
     27 CL1        259.8220   209.5300   303.6970 cl         1 F0U      -0.100400
     28 CL2        251.6710   209.8200   301.6600 cl         1 F0U      -0.076400
     29 H1         253.9330   209.7510   304.1430 hc         1 F0U       0.048033
     30 H2         255.0100   209.1420   305.3980 hc         1 F0U       0.048033
     31 H3         254.4100   210.7920   305.4760 hc         1 F0U       0.048033
     32 H4         257.3090   209.0990   304.9400 ha         1 F0U       0.151000
     33 H5         259.0280   211.5950   301.9230 ha         1 F0U       0.155000
     34 H6         257.9270   213.5140   298.2740 h1         1 F0U       0.042700
     35 H7         256.3540   214.1150   298.8120 h1         1 F0U       0.042700
     36 H8         257.8430   214.7970   299.4800 h1         1 F0U       0.042700
     37 H9         252.7240   214.3950   303.3180 ha         1 F0U       0.183000
     38 H10        251.6150   208.3900   299.1900 ha         1 F0U       0.158000
     39 H11        251.5660   209.2510   296.8510 ha         1 F0U       0.152000
     40 H12        251.5670   211.7150   296.4860 h4         1 F0U       0.034100
     41 H13        257.6530   211.9280   299.8900 hn         1 F0U       0.321500
     42 H14        254.0600   212.3660   303.6910 hn         1 F0U       0.338500
@<TRIPOS>BOND
     1     1     2 1   
     2     1    29 1   
     3     1    30 1   
     4     1    31 1   
     5     2     3 ar  
     6     2     9 ar  
     7     3     4 ar  
     8     3    32 1   
     9     4     5 ar  
    10     4    27 1   
    11     5     6 ar  
    12     5    33 1   
    13     6     7 1   
    14     6     9 ar  
    15     7    19 1   
    16     7    24 2   
    17     8    19 1   
    18     8    34 1   
    19     8    35 1   
    20     8    36 1   
    21     9    20 1   
    22    10    11 1   
    23    10    20 1   
    24    10    25 2   
    25    11    12 2   
    26    11    22 1   
    27    12    13 1   
    28    12    37 1   
    29    13    21 2   
    30    13    26 1   
    31    14    15 ar  
    32    14    22 1   
    33    14    23 ar  
    34    15    16 ar  
    35    15    28 1   
    36    16    17 ar  
    37    16    38 1   
    38    17    18 ar  
    39    17    39 1   
    40    18    23 ar  
    41    18    40 1   
    42    19    41 1   
    43    20    42 1   
    44    21    22 1   
@<TRIPOS>SUBSTRUCTURE
     1 F0U         1 TEMP              0 ****  ****    0 ROOT
