@<TRIPOS>MOLECULE
F0U
   42    44     1     0     0
SMALL
No Charge or Current Charge


@<TRIPOS>ATOM
      1 CAA        254.9970   210.4970   305.2430 c3         1 F0U      -0.049800
      2 CAB        256.1350   210.8200   304.2760 ca         1 F0U      -0.092300
      3 CAC        257.4200   210.3130   304.5390 ca         1 F0U      -0.078000
      4 CAD        258.4760   210.5770   303.6590 ca         1 F0U       0.107000
      5 CAF        258.2650   211.3610   302.5170 ca         1 F0U      -0.076000
      6 CAG        256.9840   211.8930   302.2280 ca         1 F0U      -0.133600
      7 CAH        256.8150   212.8100   301.0310 c          1 F0U       0.618700
      8 CAJ        257.6840   213.3780   298.7410 c3         1 F0U       0.092300
      9 CAL        255.9070   211.5950   303.1130 ca         1 F0U       0.004000
     10 CAN        253.8010   211.8430   301.7290 c          1 F0U       0.654700
     11 CAO        252.4700   212.4920   301.8000 cc         1 F0U      -0.189600
     12 CAP        251.9550   213.2430   302.8300 cd         1 F0U      -0.153000
     13 CAQ        250.6550   213.6530   302.4530 cd         1 F0U       0.282200
     14 CAU        251.4700   211.8730   299.6300 ca         1 F0U       0.471500
     15 CAV        251.2040   210.4750   299.6090 ca         1 F0U       0.081000
     16 CAX        251.2420   209.7800   298.3890 ca         1 F0U      -0.058000
     17 CAY        251.5400   210.4940   297.2190 ca         1 F0U      -0.148000
     18 CAZ        251.7880   211.8710   297.3090 ca         1 F0U       0.359900
     19 NAI        257.6650   212.5820   299.9700 ns         1 F0U      -0.487900
     20 NAM        254.5820   212.0310   302.8560 ns         1 F0U      -0.141000
     21 NAS        250.2970   213.2230   301.2600 nc         1 F0U      -0.435800
     22 NAT        251.4230   212.5140   300.8810 na         1 F0U       0.144300
     23 NBA        251.7540   212.5490   298.4770 nb         1 F0U      -0.633000
     24 OAK        256.0270   213.7470   301.0150 o          1 F0U      -0.596100
     25 OBB        254.1700   211.1760   300.7680 o          1 F0U      -0.582100
     26 Br         249.5170   214.7090   303.5200 br         1 F0U      -0.110200
     27 Cl1        260.0800   209.9420   304.0010 cl         1 F0U      -0.192000
     28 Cl2        250.8240   209.5660   301.0810 cl         1 F0U      -0.168000
     29 H1         254.1970   209.9400   304.7410 hc         1 F0U       0.048033
     30 H2         255.3380   209.8870   306.0870 hc         1 F0U       0.048033
     31 H3         254.5600   211.4130   305.6600 hc         1 F0U       0.048033
     32 H4         257.6040   209.7090   305.4240 ha         1 F0U       0.133000
     33 H5         259.1200   211.5810   301.8830 ha         1 F0U       0.137000
     34 H6         258.4420   212.9780   298.0560 h1         1 F0U       0.042700
     35 H7         256.6990   213.3330   298.2570 h1         1 F0U       0.042700
     36 H8         257.9260   214.4210   298.9800 h1         1 F0U       0.042700
     37 H9         252.4360   213.4920   303.7710 ha         1 F0U       0.165000
     38 H10        251.0430   208.7110   298.3530 ha         1 F0U       0.140000
     39 H11        251.5800   209.9950   296.2550 ha         1 F0U       0.134000
     40 H12        252.0210   212.4520   296.4170 h4         1 F0U       0.034100
     41 H13        258.2790   211.7800   300.0380 hn         1 F0U       0.321500
     42 H14        254.1440   212.5430   303.6080 hn         1 F0U       0.172000
@<TRIPOS>BOND
     1     1     2 1   
     2     1    29 1   
     3     1    30 1   
     4     1    31 1   
     5     2     3 ar  
     6     2     9 ar  
     7     3     4 ar  
     8     3    32 1   
     9     4     5 ar  
    10     4    27 1   
    11     5     6 ar  
    12     5    33 1   
    13     6     7 1   
    14     6     9 ar  
    15     7    19 1   
    16     7    24 2   
    17     8    19 1   
    18     8    34 1   
    19     8    35 1   
    20     8    36 1   
    21     9    20 1   
    22    10    11 1   
    23    10    20 1   
    24    10    25 2   
    25    11    12 2   
    26    11    22 1   
    27    12    13 1   
    28    12    37 1   
    29    13    21 2   
    30    13    26 1   
    31    14    15 ar  
    32    14    22 1   
    33    14    23 ar  
    34    15    16 ar  
    35    15    28 1   
    36    16    17 ar  
    37    16    38 1   
    38    17    18 ar  
    39    17    39 1   
    40    18    23 ar  
    41    18    40 1   
    42    19    41 1   
    43    20    42 1   
    44    21    22 1   
@<TRIPOS>SUBSTRUCTURE
     1 F0U         1 TEMP              0 ****  ****    0 ROOT
