@<TRIPOS>MOLECULE
F0V
   45    48     1     0     0
SMALL
abcg2


@<TRIPOS>ATOM
      1 C1          -4.5470     1.8790     0.1860 ca         1 F0V      -0.025300
      2 C2          -3.6890     2.1340     1.2540 ca         1 F0V      -0.088000
      3 C3          -2.4080     1.6090     1.3090 ca         1 F0V      -0.093000
      4 C11          1.3450    -2.6520     0.3460 cc         1 F0V       0.055000
      5 C12          3.0500    -1.2740     0.2890 cc         1 F0V       0.523800
      6 C13          4.4660    -0.8270     0.2710 c3         1 F0V      -0.072400
      7 C14          4.6030     0.6430    -0.0140 ca         1 F0V      -0.115300
      8 C15          4.7010     1.5620     1.0250 ca         1 F0V      -0.090000
      9 C16          4.8170     2.9190     0.7540 ca         1 F0V      -0.103000
     10 C17          4.8350     3.3690    -0.5590 ca         1 F0V      -0.082000
     11 C18          4.7370     2.4550    -1.6010 ca         1 F0V      -0.103000
     12 C19          4.6200     1.1000    -1.3280 ca         1 F0V      -0.090000
     13 C6          -4.0510     1.0780    -0.8420 ca         1 F0V       0.120000
     14 C           -5.9310     2.4470     0.1540 c3         1 F0V      -0.060800
     15 C5          -2.7690     0.5550    -0.8240 ca         1 F0V      -0.100000
     16 C4          -1.9520     0.8180     0.2670 ca         1 F0V      -0.052200
     17 N           -0.6350     0.2990     0.3040 nu         1 F0V      -0.328500
     18 C7          -0.3500    -0.9960     0.3250 cc         1 F0V       0.488100
     19 N4           0.9610    -1.3520     0.3170 na         1 F0V       0.066000
     20 N1           0.5490    -3.6780     0.3790 nd         1 F0V      -0.320600
     21 C9          -0.7590    -3.3730     0.3900 cd         1 F0V       0.283400
     22 C10         -1.7030    -4.5240     0.4320 c3         1 F0V      -0.070900
     23 C8          -1.2390    -2.0700     0.3660 cc         1 F0V      -0.448600
     24 N3           2.0120    -0.4980     0.2790 n2         1 F0V      -0.505800
     25 N2           2.6900    -2.5870     0.3290 na         1 F0V      -0.341500
     26 H1          -4.0400     2.7520     2.0700 ha         1 F0V       0.140000
     27 H2          -1.7680     1.8140     2.1570 ha         1 F0V       0.133000
     28 H3           4.9090    -1.0830     1.2380 hc         1 F0V       0.090200
     29 H4           4.9990    -1.4200    -0.4750 hc         1 F0V       0.090200
     30 H5           4.6910     1.2170     2.0520 ha         1 F0V       0.113000
     31 H6           4.8960     3.6250     1.5710 ha         1 F0V       0.128000
     32 H7           4.9280     4.4260    -0.7690 ha         1 F0V       0.129000
     33 H8           4.7550     2.7980    -2.6280 ha         1 F0V       0.128000
     34 H9           4.5480     0.3910    -2.1440 ha         1 F0V       0.113000
     35 H10         -6.6820     1.6610     0.0660 hc         1 F0V       0.065700
     36 H11         -6.1370     3.0110     1.0620 hc         1 F0V       0.065700
     37 H12         -6.0650     3.1160    -0.6970 hc         1 F0V       0.065700
     38 H13         -2.4080    -0.0420    -1.6520 ha         1 F0V       0.141000
     39 H14          0.1350     0.9540     0.3660 hn         1 F0V       0.391000
     40 H15         -1.5100    -5.1370     1.3130 hc         1 F0V       0.084700
     41 H16         -2.7400    -4.1990     0.4530 hc         1 F0V       0.084700
     42 H17         -1.5540    -5.1600    -0.4420 hc         1 F0V       0.084700
     43 H18         -2.3020    -1.8870     0.3850 ha         1 F0V       0.248000
     44 H19          3.3120    -3.3850     0.3430 hn         1 F0V       0.421000
     45 CL          -5.0550     0.7310    -2.2110 cl         1 F0V      -0.161000
@<TRIPOS>BOND
     1     1     2 ar  
     2     1    13 ar  
     3     1    14 1   
     4     2     3 ar  
     5     2    26 1   
     6     3    16 ar  
     7     3    27 1   
     8     4    19 1   
     9     4    20 2   
    10     4    25 1   
    11     5     6 1   
    12     5    24 2   
    13     5    25 1   
    14     6     7 1   
    15     6    28 1   
    16     6    29 1   
    17     7     8 ar  
    18     7    12 ar  
    19     8     9 ar  
    20     8    30 1   
    21     9    10 ar  
    22     9    31 1   
    23    10    11 ar  
    24    10    32 1   
    25    11    12 ar  
    26    11    33 1   
    27    12    34 1   
    28    13    15 ar  
    29    13    45 1   
    30    14    35 1   
    31    14    36 1   
    32    14    37 1   
    33    15    16 ar  
    34    15    38 1   
    35    16    17 1   
    36    17    18 2   
    37    17    39 1   
    38    18    19 1   
    39    18    23 1   
    40    19    24 1   
    41    20    21 1   
    42    21    22 1   
    43    21    23 2   
    44    22    40 1   
    45    22    41 1   
    46    22    42 1   
    47    23    43 1   
    48    25    44 1   
@<TRIPOS>SUBSTRUCTURE
     1 F0V         1 TEMP              0 ****  ****    0 ROOT
