@<TRIPOS>MOLECULE
F0V
   45    48     1     0     0
SMALL
No Charge or Current Charge


@<TRIPOS>ATOM
      1 C1          -5.6560     1.1250     1.5750 ca         1 F0V      -0.025300
      2 C2          -4.8110     1.0840     2.7010 ca         1 F0V      -0.088000
      3 C3          -3.4280     0.8820     2.5490 ca         1 F0V      -0.093000
      4 C11          1.3460    -1.0550    -0.4830 cc         1 F0V       0.055000
      5 C12          2.6570     0.3640     0.5270 cc         1 F0V       0.523800
      6 C13          3.9050     1.0800     0.9630 c3         1 F0V      -0.072400
      7 C14          5.1100     0.8460     0.0540 ca         1 F0V      -0.115300
      8 C15          5.2550     1.5890    -1.1340 ca         1 F0V      -0.090000
      9 C16          6.3570     1.3670    -1.9780 ca         1 F0V      -0.103000
     10 C17          7.3200     0.4010    -1.6400 ca         1 F0V      -0.082000
     11 C18          7.1800    -0.3440    -0.4570 ca         1 F0V      -0.103000
     12 C19          6.0780    -0.1230     0.3880 ca         1 F0V      -0.090000
     13 C6          -5.0930     0.9670     0.2900 ca         1 F0V       0.120000
     14 C           -7.1550     1.3440     1.7570 c3         1 F0V      -0.060800
     15 C5          -3.7100     0.7650     0.1410 ca         1 F0V      -0.100000
     16 C4          -2.8710     0.7080     1.2700 ca         1 F0V      -0.052200
     17 N           -1.4870     0.5200     1.1350 nu         1 F0V      -0.328500
     18 C7          -0.7200    -0.3180     0.3510 cc         1 F0V       0.488100
     19 N4           0.6540    -0.2120     0.3160 na         1 F0V       0.066000
     20 N1           0.8760    -2.0340    -1.2460 nd         1 F0V      -0.320600
     21 C9          -0.5190    -2.2080    -1.2120 cd         1 F0V       0.283400
     22 C10         -1.1030    -3.3150    -2.0430 c3         1 F0V      -0.070900
     23 C8          -1.2960    -1.3660    -0.4290 cc         1 F0V      -0.448600
     24 N3           1.4630     0.6920     0.9580 n2         1 F0V      -0.505800
     25 N2           2.6630    -0.7080    -0.3640 na         1 F0V      -0.341500
     26 H1          -5.2240     1.2100     3.7000 ha         1 F0V       0.140000
     27 H2          -2.7930     0.8530     3.4330 ha         1 F0V       0.133000
     28 H3           3.6920     2.1540     1.0210 hc         1 F0V       0.090200
     29 H4           4.1390     0.7730     1.9890 hc         1 F0V       0.090200
     30 H5           4.5140     2.3380    -1.4050 ha         1 F0V       0.113000
     31 H6           6.4650     1.9450    -2.8940 ha         1 F0V       0.128000
     32 H7           8.1730     0.2300    -2.2940 ha         1 F0V       0.129000
     33 H8           7.9250    -1.0920    -0.1940 ha         1 F0V       0.128000
     34 H9           5.9790    -0.7060     1.3020 ha         1 F0V       0.113000
     35 H10         -7.7290     0.5080     1.3400 hc         1 F0V       0.065700
     36 H11         -7.4290     1.4330     2.8150 hc         1 F0V       0.065700
     37 H12         -7.4820     2.2620     1.2550 hc         1 F0V       0.065700
     38 H13         -3.2960     0.6670    -0.8590 ha         1 F0V       0.141000
     39 H14         -0.9100     1.0050     1.8170 hn         1 F0V       0.391000
     40 H15         -1.6760    -4.0080    -1.4190 hc         1 F0V       0.084700
     41 H16         -1.7760    -2.9110    -2.8070 hc         1 F0V       0.084700
     42 H17         -0.3240    -3.8920    -2.5550 hc         1 F0V       0.084700
     43 H18         -2.3680    -1.5100    -0.3910 ha         1 F0V       0.248000
     44 H19          3.4680    -1.1160    -0.8190 hn         1 F0V       0.421000
     45 Cl          -6.1000     1.0250    -1.1570 cl         1 F0V      -0.161000
@<TRIPOS>BOND
     1     1     2 ar  
     2     1    13 ar  
     3     1    14 1   
     4     2     3 ar  
     5     2    26 1   
     6     3    16 ar  
     7     3    27 1   
     8     4    19 1   
     9     4    20 2   
    10     4    25 1   
    11     5     6 1   
    12     5    24 2   
    13     5    25 1   
    14     6     7 1   
    15     6    28 1   
    16     6    29 1   
    17     7     8 ar  
    18     7    12 ar  
    19     8     9 ar  
    20     8    30 1   
    21     9    10 ar  
    22     9    31 1   
    23    10    11 ar  
    24    10    32 1   
    25    11    12 ar  
    26    11    33 1   
    27    12    34 1   
    28    13    15 ar  
    29    13    45 1   
    30    14    35 1   
    31    14    36 1   
    32    14    37 1   
    33    15    16 ar  
    34    15    38 1   
    35    16    17 1   
    36    17    18 2   
    37    17    39 1   
    38    18    19 1   
    39    18    23 1   
    40    19    24 1   
    41    20    21 1   
    42    21    22 1   
    43    21    23 2   
    44    22    40 1   
    45    22    41 1   
    46    22    42 1   
    47    23    43 1   
    48    25    44 1   
@<TRIPOS>SUBSTRUCTURE
     1 F0V         1 TEMP              0 ****  ****    0 ROOT
