@<TRIPOS>MOLECULE
F0W
   46    47     1     0     0
SMALL
bcc


@<TRIPOS>ATOM
      1 O2           0.7840    -2.8140    -0.4670 o          1 F0W      -0.644100
      2 C4           0.7530    -1.6770    -0.9260 c          1 F0W       0.795100
      3 N            1.8090    -0.8300    -0.7770 ns         1 F0W      -0.575900
      4 C3           2.9540    -1.2530    -0.0180 c3         1 F0W       0.049000
      5 C2           3.9750    -0.1420     0.0180 c          1 F0W       0.633100
      6 O1           3.7810     0.9750    -0.3930 o          1 F0W      -0.545000
      7 O            5.0960    -0.5520     0.5770 os         1 F0W      -0.421900
      8 C1           6.1730     0.3940     0.7130 c3         1 F0W       0.144400
      9 C            7.3150    -0.3070     1.4060 c3         1 F0W      -0.098100
     10 N1          -0.3060    -1.2130    -1.6580 n          1 F0W      -0.474800
     11 C12         -0.3370     0.1010    -2.2490 c3         1 F0W       0.080700
     12 C13         -0.8380     1.1780    -1.3380 cc         1 F0W       0.456300
     13 N6          -0.6340     1.2180    -0.0390 nd         1 F0W      -0.522800
     14 N5          -1.2880     2.2960     0.3090 na         1 F0W       0.290900
     15 C14         -1.4490     2.7100     1.6850 c3         1 F0W       0.040600
     16 N4          -1.8560     2.9060    -0.6870 nd         1 F0W      -0.178800
     17 N3          -1.5790     2.2160    -1.7480 nc         1 F0W      -0.386000
     18 C5          -1.5800    -1.9250    -1.5930 c3         1 F0W       0.161300
     19 C6          -2.4950    -1.3480    -0.5460 ca         1 F0W      -0.164300
     20 C11         -3.4700    -0.4120    -0.8740 ca         1 F0W      -0.068500
     21 C10         -4.2000     0.2460     0.1020 ca         1 F0W      -0.202000
     22 C9          -3.9790    -0.0220     1.4570 ca         1 F0W       0.143600
     23 N2          -4.6350     0.6880     2.4410 nv         1 F0W      -0.832200
     24 C8          -3.0250    -0.9930     1.7890 ca         1 F0W      -0.202000
     25 C7          -2.3000    -1.6350     0.8020 ca         1 F0W      -0.068500
     26 H1           1.6770     0.1660    -0.8370 hn         1 F0W       0.335500
     27 H2           2.7030    -1.5140     1.0170 h1         1 F0W       0.080700
     28 H3           3.4110    -2.1400    -0.4600 h1         1 F0W       0.080700
     29 H4           6.4720     0.7480    -0.2750 h1         1 F0W       0.050200
     30 H5           5.8320     1.2550     1.2920 h1         1 F0W       0.050200
     31 H6           7.0350    -0.6410     2.4050 hc         1 F0W       0.048700
     32 H7           7.6630    -1.1670     0.8340 hc         1 F0W       0.048700
     33 H8           8.1490     0.3860     1.5070 hc         1 F0W       0.048700
     34 H9           0.6480     0.3610    -2.6450 h1         1 F0W       0.079200
     35 H10         -0.9930     0.0730    -3.1210 h1         1 F0W       0.079200
     36 H11         -0.4930     2.6350     2.1950 h1         1 F0W       0.075367
     37 H12         -1.7910     3.7390     1.6950 h1         1 F0W       0.075367
     38 H13         -2.1830     2.0740     2.1760 h1         1 F0W       0.075367
     39 H14         -2.0450    -1.8660    -2.5800 h1         1 F0W       0.068700
     40 H15         -1.3740    -2.9760    -1.4010 h1         1 F0W       0.068700
     41 H16         -3.6540    -0.1720    -1.9150 ha         1 F0W       0.139000
     42 H17         -4.9440     0.9800    -0.1840 ha         1 F0W       0.131500
     43 H18         -5.5090     1.1090     2.1680 hn         1 F0W       0.392800
     44 H19         -4.7050     0.2320     3.3360 hn         1 F0W       0.392800
     45 H20         -2.8480    -1.2330     2.8310 ha         1 F0W       0.131500
     46 H21         -1.5510    -2.3630     1.0910 ha         1 F0W       0.139000
@<TRIPOS>BOND
     1     1     2 2   
     2     2     3 1   
     3     2    10 1   
     4     3     4 1   
     5     3    26 1   
     6     4     5 1   
     7     4    27 1   
     8     4    28 1   
     9     5     6 2   
    10     5     7 1   
    11     7     8 1   
    12     8     9 1   
    13     8    29 1   
    14     8    30 1   
    15     9    31 1   
    16     9    32 1   
    17     9    33 1   
    18    10    11 1   
    19    10    18 1   
    20    11    12 1   
    21    11    34 1   
    22    11    35 1   
    23    12    13 2   
    24    12    17 1   
    25    13    14 1   
    26    14    15 1   
    27    14    16 1   
    28    15    36 1   
    29    15    37 1   
    30    15    38 1   
    31    16    17 2   
    32    18    19 1   
    33    18    39 1   
    34    18    40 1   
    35    19    20 ar  
    36    19    25 ar  
    37    20    21 ar  
    38    20    41 1   
    39    21    22 ar  
    40    21    42 1   
    41    22    23 1   
    42    22    24 ar  
    43    23    43 1   
    44    23    44 1   
    45    24    25 ar  
    46    24    45 1   
    47    25    46 1   
@<TRIPOS>SUBSTRUCTURE
     1 F0W         1 TEMP              0 ****  ****    0 ROOT
