@<TRIPOS>MOLECULE
F0W
   46    47     1     0     0
SMALL
No Charge or Current Charge


@<TRIPOS>ATOM
      1 O2           0.7820    -2.8980    -0.4180 o          1 F0W      -0.644100
      2 C4           0.7520    -1.7510    -0.8330 c          1 F0W       0.661100
      3 N            1.8450    -0.9300    -0.7200 ns         1 F0W      -0.508900
      4 C3           3.1290    -1.3230    -0.0990 c3         1 F0W       0.049000
      5 C2           4.1520    -0.1680    -0.0990 c          1 F0W       0.584100
      6 O1           3.9470     0.9350    -0.5960 o          1 F0W      -0.496000
      7 O            5.3190    -0.5290     0.5240 os         1 F0W      -0.445100
      8 C1           6.3720     0.4470     0.6040 c3         1 F0W       0.167600
      9 C            7.5510    -0.2070     1.3420 c3         1 F0W      -0.098100
     10 N1          -0.3890    -1.1950    -1.4490 n          1 F0W      -0.407800
     11 C12         -0.4160     0.1940    -2.0030 c3         1 F0W       0.080700
     12 C13         -0.7630     1.2520    -0.9740 cc         1 F0W       0.456300
     13 N6          -0.0840     1.4360     0.1350 nd         1 F0W      -0.522800
     14 N5          -0.8150     2.4550     0.6630 na         1 F0W       0.261600
     15 C14         -0.5090     3.0710     1.9590 c3         1 F0W       0.069900
     16 N4          -1.8660     2.8560    -0.1190 nd         1 F0W      -0.178800
     17 N3          -1.8240     2.0850    -1.1670 nc         1 F0W      -0.386000
     18 C5          -1.6610    -1.9510    -1.5010 c3         1 F0W       0.161300
     19 C6          -2.7210    -1.3660    -0.5750 ca         1 F0W      -0.164300
     20 C11         -3.9120    -0.8280    -1.1000 ca         1 F0W      -0.050500
     21 C10         -4.8720    -0.2670    -0.2400 ca         1 F0W      -0.184000
     22 C9          -4.6480    -0.2380     1.1440 ca         1 F0W       0.282000
     23 N2          -5.5850     0.3060     1.9780 nv         1 F0W      -1.081000
     24 C8          -3.4640    -0.7710     1.6710 ca         1 F0W      -0.184000
     25 C7          -2.5020    -1.3350     0.8160 ca         1 F0W      -0.050500
     26 H1           1.7300     0.0310    -1.0170 hn         1 F0W       0.335500
     27 H2           2.9610    -1.6290     0.9410 h1         1 F0W       0.080700
     28 H3           3.5660    -2.1670    -0.6460 h1         1 F0W       0.080700
     29 H4           6.6950     0.7590    -0.3990 h1         1 F0W       0.050200
     30 H5           6.0420     1.3370     1.1570 h1         1 F0W       0.050200
     31 H6           7.2520    -0.5120     2.3520 hc         1 F0W       0.048700
     32 H7           7.9050    -1.0900     0.7980 hc         1 F0W       0.048700
     33 H8           8.3830     0.5010     1.4280 hc         1 F0W       0.048700
     34 H9           0.5470     0.4420    -2.4650 h1         1 F0W       0.079200
     35 H10         -1.1620     0.2380    -2.8060 h1         1 F0W       0.079200
     36 H11          0.5350     2.8710     2.2260 h1         1 F0W       0.075367
     37 H12         -0.6670     4.1530     1.8980 h1         1 F0W       0.075367
     38 H13         -1.1680     2.6470     2.7250 h1         1 F0W       0.075367
     39 H14         -2.0290    -1.9460    -2.5350 h1         1 F0W       0.068700
     40 H15         -1.4990    -3.0030    -1.2340 h1         1 F0W       0.068700
     41 H16         -4.0930    -0.8380    -2.1730 ha         1 F0W       0.121000
     42 H17         -5.7870     0.1470    -0.6540 ha         1 F0W       0.113500
     43 H18         -6.5000     0.5640     1.6130 hn         1 F0W       0.448000
     44 H19         -5.4920     0.2000     2.9860 hn         1 F0W       0.448000
     45 H20         -3.2840    -0.7500     2.7420 ha         1 F0W       0.113500
     46 H21         -1.5820    -1.7420     1.2340 ha         1 F0W       0.121000
@<TRIPOS>BOND
     1     1     2 2   
     2     2     3 1   
     3     2    10 1   
     4     3     4 1   
     5     3    26 1   
     6     4     5 1   
     7     4    27 1   
     8     4    28 1   
     9     5     6 2   
    10     5     7 1   
    11     7     8 1   
    12     8     9 1   
    13     8    29 1   
    14     8    30 1   
    15     9    31 1   
    16     9    32 1   
    17     9    33 1   
    18    10    11 1   
    19    10    18 1   
    20    11    12 1   
    21    11    34 1   
    22    11    35 1   
    23    12    13 2   
    24    12    17 1   
    25    13    14 1   
    26    14    15 1   
    27    14    16 1   
    28    15    36 1   
    29    15    37 1   
    30    15    38 1   
    31    16    17 2   
    32    18    19 1   
    33    18    39 1   
    34    18    40 1   
    35    19    20 ar  
    36    19    25 ar  
    37    20    21 ar  
    38    20    41 1   
    39    21    22 ar  
    40    21    42 1   
    41    22    23 1   
    42    22    24 ar  
    43    23    43 1   
    44    23    44 1   
    45    24    25 ar  
    46    24    45 1   
    47    25    46 1   
@<TRIPOS>SUBSTRUCTURE
     1 F0W         1 TEMP              0 ****  ****    0 ROOT
