@<TRIPOS>MOLECULE
F0Y
   60    63     1     0     0
SMALL
No Charge or Current Charge


@<TRIPOS>ATOM
      1 C1          -7.2190    -1.6850     0.4960 c          1 F0Y       0.641100
      2 C2          -4.9890    -0.8210    -0.3280 c6         1 F0Y       0.106000
      3 C3          -3.6100    -0.3190     0.1610 c6         1 F0Y      -0.100900
      4 O1          -8.1840    -1.6680     1.2480 o          1 F0Y      -0.545000
      5 C11         -0.3530     1.1290    -0.0110 ca         1 F0Y      -0.091000
      6 C12          1.6560     0.6720    -1.5020 c3         1 F0Y       0.310800
      7 C13          1.6410     0.3640    -3.0170 c3         1 F0Y      -0.043300
      8 C14          2.5860    -0.6880    -3.3980 c1         1 F0Y       0.283900
      9 C15          3.9240     0.8210    -0.4380 cc         1 F0Y       0.678700
     10 C16          5.6710     0.6300     0.7310 ca         1 F0Y       0.068400
     11 C17          6.8070     0.8510     1.5200 ca         1 F0Y      -0.036000
     12 C18          7.5290    -0.2910     1.9240 ca         1 F0Y      -0.175000
     13 C19          7.0860    -1.5740     1.5230 ca         1 F0Y       0.354300
     14 C20          7.8330    -2.8260     1.9420 c3         1 F0Y      -0.138400
     15 C21          5.3120    -0.6600     0.3890 ca         1 F0Y       0.350500
     16 C22         -4.6280     0.5450     2.2700 c6         1 F0Y      -0.100900
     17 C23         -6.0290     0.0750     1.8150 c6         1 F0Y       0.106000
     18 N1           3.3280    -1.5420    -3.6740 n1         1 F0Y      -0.436000
     19 N2           2.8940     1.3550    -1.1160 nu         1 F0Y      -0.913400
     20 N5           4.1980    -0.5200    -0.3580 na         1 F0Y      -0.459300
     21 N4           5.9810    -1.7660     0.7600 nb         1 F0Y      -0.676000
     22 N3           4.7980     1.5820     0.2080 nd         1 F0Y      -0.645100
     23 C10          0.4760     1.5450    -1.0740 ca         1 F0Y      -0.106300
     24 C9           0.2010     2.7720    -1.7160 ca         1 F0Y      -0.099000
     25 C8          -0.8880     3.5590    -1.3070 ca         1 F0Y      -0.105000
     26 C7          -1.7100     3.1310    -0.2530 ca         1 F0Y      -0.097000
     27 C6          -1.4470     1.9140     0.4010 ca         1 F0Y      -0.070300
     28 C5          -2.3450     1.4500     1.5430 c3         1 F0Y      -0.031100
     29 C4          -3.7320     0.9220     1.0720 c6         1 F0Y      -0.057700
     30 N           -6.0370    -0.9540     0.7330 n          1 F0Y      -0.398800
     31 O           -7.1620    -2.4120    -0.6630 os         1 F0Y      -0.457100
     32 C           -8.3090    -3.2050    -1.0200 c3         1 F0Y       0.170900
     33 H1          -5.3660    -0.1250    -1.0910 h1         1 F0Y       0.061200
     34 H2          -4.8340    -1.7890    -0.8260 h1         1 F0Y       0.061200
     35 H3          -3.1050    -1.1290     0.7060 hc         1 F0Y       0.051950
     36 H4          -2.9830    -0.0970    -0.7120 hc         1 F0Y       0.051950
     37 H5          -0.1500     0.1870     0.4950 ha         1 F0Y       0.113000
     38 H6           1.5730    -0.2830    -0.9640 h1         1 F0Y       0.060700
     39 H7           0.6360     0.0360    -3.3050 hc         1 F0Y       0.081700
     40 H8           1.8650     1.2670    -3.5940 hc         1 F0Y       0.081700
     41 H9           7.1130     1.8550     1.8050 ha         1 F0Y       0.131000
     42 H10          8.4180    -0.1860     2.5390 ha         1 F0Y       0.120000
     43 H11          7.3260    -3.3180     2.7800 hc         1 F0Y       0.048033
     44 H12          7.9000    -3.5440     1.1170 hc         1 F0Y       0.048033
     45 H13          8.8560    -2.5920     2.2600 hc         1 F0Y       0.048033
     46 H14         -4.7370     1.4010     2.9490 hc         1 F0Y       0.051950
     47 H15         -4.1520    -0.2550     2.8540 hc         1 F0Y       0.051950
     48 H16         -6.5650    -0.3120     2.6940 h1         1 F0Y       0.061200
     49 H17         -6.5930     0.9480     1.4570 h1         1 F0Y       0.061200
     50 H18          2.8280     2.3530    -0.9390 hn         1 F0Y       0.517000
     51 H19          3.6900    -1.2580    -0.8110 hn         1 F0Y       0.363000
     52 H21          0.8310     3.1220    -2.5310 ha         1 F0Y       0.113000
     53 H22         -1.0940     4.5030    -1.8080 ha         1 F0Y       0.119000
     54 H23         -2.5530     3.7470     0.0560 ha         1 F0Y       0.117000
     55 H24         -1.8350     0.6740     2.1290 hc         1 F0Y       0.053200
     56 H25         -2.4910     2.2860     2.2370 hc         1 F0Y       0.053200
     57 H26         -4.2120     1.7360     0.5100 hc         1 F0Y       0.047700
     58 H27         -8.5220    -3.9550    -0.2470 h1         1 F0Y       0.047367
     59 H28         -9.1980    -2.5740    -1.1470 h1         1 F0Y       0.047367
     60 H29         -8.1290    -3.7330    -1.9650 h1         1 F0Y       0.047367
@<TRIPOS>BOND
     1     1     4 2   
     2     1    30 1   
     3     1    31 1   
     4     2     3 1   
     5     2    30 1   
     6     2    33 1   
     7     2    34 1   
     8     3    29 1   
     9     3    35 1   
    10     3    36 1   
    11     5    23 ar  
    12     5    27 ar  
    13     5    37 1   
    14     6     7 1   
    15     6    19 1   
    16     6    23 1   
    17     6    38 1   
    18     7     8 1   
    19     7    39 1   
    20     7    40 1   
    21     8    18 3   
    22     9    19 1   
    23     9    20 1   
    24     9    22 2   
    25    10    11 ar  
    26    10    15 ar  
    27    10    22 1   
    28    11    12 ar  
    29    11    41 1   
    30    12    13 ar  
    31    12    42 1   
    32    13    14 1   
    33    13    21 ar  
    34    14    43 1   
    35    14    44 1   
    36    14    45 1   
    37    15    20 1   
    38    15    21 ar  
    39    16    17 1   
    40    16    29 1   
    41    16    46 1   
    42    16    47 1   
    43    17    30 1   
    44    17    48 1   
    45    17    49 1   
    46    19    50 1   
    47    20    51 1   
    48    23    24 ar  
    49    24    25 ar  
    50    24    52 1   
    51    25    26 ar  
    52    25    53 1   
    53    26    27 ar  
    54    26    54 1   
    55    27    28 1   
    56    28    29 1   
    57    28    55 1   
    58    28    56 1   
    59    29    57 1   
    60    31    32 1   
    61    32    58 1   
    62    32    59 1   
    63    32    60 1   
@<TRIPOS>SUBSTRUCTURE
     1 F0Y         1 TEMP              0 ****  ****    0 ROOT
