@<TRIPOS>MOLECULE
F0Y
   60    63     1     0     0
SMALL
bcc


@<TRIPOS>ATOM
      1 C1          -6.6550    -1.8060     0.4430 c          1 F0Y       0.757100
      2 C2          -5.3130    -0.1150    -0.7890 c6         1 F0Y       0.106000
      3 C3          -3.9290     0.1940    -0.2320 c6         1 F0Y      -0.100900
      4 O1          -7.3140    -2.1880     1.3930 o          1 F0Y      -0.594000
      5 C11         -0.5490     1.2070     0.1550 ca         1 F0Y      -0.109000
      6 C12          1.5300     0.7560    -1.1760 c3         1 F0Y       0.310800
      7 C13          1.3930     0.3670    -2.6620 c3         1 F0Y      -0.043300
      8 C14          2.4660    -0.5170    -3.0850 c1         1 F0Y       0.194700
      9 C15          3.8930     0.7560    -0.3870 cc         1 F0Y       0.678700
     10 C16          5.8730     0.3950     0.3010 ca         1 F0Y       0.003100
     11 C17          7.2050     0.3970     0.6730 ca         1 F0Y      -0.054000
     12 C18          7.6960    -0.7640     1.2680 ca         1 F0Y      -0.258300
     13 C19          6.8770    -1.8750     1.4730 ca         1 F0Y       0.419600
     14 C20          7.4070    -3.1270     2.1050 c3         1 F0Y      -0.138400
     15 C21          5.1480    -0.7820     0.5600 ca         1 F0Y       0.415800
     16 C22         -5.0080     0.7610     1.9510 c6         1 F0Y      -0.100900
     17 C23         -6.3610     0.4340     1.3330 c6         1 F0Y       0.106000
     18 N1           3.3230    -1.2170    -3.4000 n1         1 F0Y      -0.346800
     19 N2           2.8060     1.3690    -0.8960 nu         1 F0Y      -0.858200
     20 N5           3.8770    -0.5180     0.1080 na         1 F0Y      -0.409000
     21 N4           5.5850    -1.8850     1.1150 nb         1 F0Y      -0.676000
     22 N3           5.0670     1.3350    -0.2910 nd         1 F0Y      -0.645100
     23 C10          0.3880     1.6580    -0.7680 ca         1 F0Y      -0.106300
     24 C9           0.2530     2.9330    -1.3070 ca         1 F0Y      -0.117000
     25 C8          -0.8010     3.7430    -0.9070 ca         1 F0Y      -0.123000
     26 C7          -1.7260     3.2830     0.0200 ca         1 F0Y      -0.115000
     27 C6          -1.6150     2.0040     0.5600 ca         1 F0Y      -0.070300
     28 C5          -2.6370     1.4920     1.5350 c3         1 F0Y      -0.031100
     29 C4          -4.0030     1.2200     0.8960 c6         1 F0Y      -0.057700
     30 N           -6.2140    -0.5440     0.2690 n          1 F0Y      -0.465800
     31 O           -6.3090    -2.6120    -0.5660 os         1 F0Y      -0.433900
     32 C           -6.7740    -3.9550    -0.5070 c3         1 F0Y       0.147700
     33 H1          -5.7340     0.7880    -1.2430 h1         1 F0Y       0.061200
     34 H2          -5.2560    -0.8640    -1.5730 h1         1 F0Y       0.061200
     35 H3          -3.4700    -0.7310     0.1340 hc         1 F0Y       0.051950
     36 H4          -3.2990     0.5620    -1.0460 hc         1 F0Y       0.051950
     37 H5          -0.4460     0.2100     0.5700 ha         1 F0Y       0.131000
     38 H6           1.4490    -0.1550    -0.5840 h1         1 F0Y       0.060700
     39 H7           0.4390    -0.1350    -2.8310 hc         1 F0Y       0.081700
     40 H8           1.4100     1.2560    -3.2960 hc         1 F0Y       0.081700
     41 H9           7.8440     1.2560     0.5150 ha         1 F0Y       0.149000
     42 H10          8.7320    -0.8100     1.5770 ha         1 F0Y       0.138000
     43 H11          6.8020    -3.4200     2.9630 hc         1 F0Y       0.048033
     44 H12          7.3900    -3.9590     1.3990 hc         1 F0Y       0.048033
     45 H13          8.4340    -2.9990     2.4450 hc         1 F0Y       0.048033
     46 H14         -5.1380     1.5350     2.7130 hc         1 F0Y       0.051950
     47 H15         -4.6230    -0.1290     2.4610 hc         1 F0Y       0.051950
     48 H16         -7.0510     0.0600     2.0840 h1         1 F0Y       0.061200
     49 H17         -6.8040     1.3410     0.9090 h1         1 F0Y       0.061200
     50 H18          2.9800     2.2940    -1.2570 hn         1 F0Y       0.461800
     51 H19          3.1030    -1.1620     0.1430 hn         1 F0Y       0.312700
     52 H21          0.9590     3.3110    -2.0370 ha         1 F0Y       0.131000
     53 H22         -0.9010     4.7390    -1.3200 ha         1 F0Y       0.137000
     54 H23         -2.5410     3.9290     0.3280 ha         1 F0Y       0.135000
     55 H24         -2.2720     0.5730     2.0020 hc         1 F0Y       0.053200
     56 H25         -2.7690     2.2210     2.3400 hc         1 F0Y       0.053200
     57 H26         -4.3700     2.1640     0.4680 hc         1 F0Y       0.047700
     58 H27         -6.4060    -4.4740     0.3780 h1         1 F0Y       0.047367
     59 H28         -7.8620    -4.0080    -0.5260 h1         1 F0Y       0.047367
     60 H29         -6.3800    -4.4430    -1.3940 h1         1 F0Y       0.047367
@<TRIPOS>BOND
     1     1     4 2   
     2     1    30 1   
     3     1    31 1   
     4     2     3 1   
     5     2    30 1   
     6     2    33 1   
     7     2    34 1   
     8     3    29 1   
     9     3    35 1   
    10     3    36 1   
    11     5    23 ar  
    12     5    27 ar  
    13     5    37 1   
    14     6     7 1   
    15     6    19 1   
    16     6    23 1   
    17     6    38 1   
    18     7     8 1   
    19     7    39 1   
    20     7    40 1   
    21     8    18 3   
    22     9    19 1   
    23     9    20 1   
    24     9    22 2   
    25    10    11 ar  
    26    10    15 ar  
    27    10    22 1   
    28    11    12 ar  
    29    11    41 1   
    30    12    13 ar  
    31    12    42 1   
    32    13    14 1   
    33    13    21 ar  
    34    14    43 1   
    35    14    44 1   
    36    14    45 1   
    37    15    20 1   
    38    15    21 ar  
    39    16    17 1   
    40    16    29 1   
    41    16    46 1   
    42    16    47 1   
    43    17    30 1   
    44    17    48 1   
    45    17    49 1   
    46    19    50 1   
    47    20    51 1   
    48    23    24 ar  
    49    24    25 ar  
    50    24    52 1   
    51    25    26 ar  
    52    25    53 1   
    53    26    27 ar  
    54    26    54 1   
    55    27    28 1   
    56    28    29 1   
    57    28    55 1   
    58    28    56 1   
    59    29    57 1   
    60    31    32 1   
    61    32    58 1   
    62    32    59 1   
    63    32    60 1   
@<TRIPOS>SUBSTRUCTURE
     1 F0Y         1 TEMP              0 ****  ****    0 ROOT
