@<TRIPOS>MOLECULE
F0Z
   25    26     1     0     0
SMALL
abcg2


@<TRIPOS>ATOM
      1 C1          17.6190    36.8320    41.9750 ca         1 F0Z      -0.129000
      2 S           18.2070    35.4070    44.2730 sh         1 F0Z      -0.169800
      3 C           18.4600    35.8920    42.5770 ca         1 F0Z      -0.056000
      4 C5          19.5290    35.3520    41.8450 ca         1 F0Z      -0.119900
      5 C4          19.7290    35.7670    40.5280 ca         1 F0Z      -0.062000
      6 C3          18.8910    36.7000    39.9320 ca         1 F0Z      -0.119000
      7 C2          17.8340    37.2320    40.6640 ca         1 F0Z      -0.087000
      8 C6          20.4730    34.3590    42.4380 ce         1 F0Z       0.675800
      9 N1          19.8900    33.2240    42.9180 nu         1 F0Z      -0.949400
     10 C9          20.6830    32.1440    43.4920 c6         1 F0Z       0.228800
     11 C8          22.0880    32.1980    42.9080 c6         1 F0Z      -0.127400
     12 C7          22.6270    33.6220    43.0250 c6         1 F0Z       0.115800
     13 N           21.7280    34.6390    42.4730 n2         1 F0Z      -0.663900
     14 H1          16.7970    37.2550    42.5380 ha         1 F0Z       0.114000
     15 H2          17.3720    36.4150    44.5790 hs         1 F0Z       0.196800
     16 H3          20.5590    35.3460    39.9760 ha         1 F0Z       0.129000
     17 H4          19.0610    37.0080    38.9090 ha         1 F0Z       0.120000
     18 H5          17.1710    37.9620    40.2160 ha         1 F0Z       0.115000
     19 H6          18.9390    33.0320    42.6520 hn         1 F0Z       0.491000
     20 H7          20.7230    32.2480    44.5810 h1         1 F0Z       0.043200
     21 H8          20.1910    31.1980    43.2670 h1         1 F0Z       0.043200
     22 H9          22.0530    31.9040    41.8550 hc         1 F0Z       0.051200
     23 H10         22.7410    31.4960    43.4290 hc         1 F0Z       0.051200
     24 H11         23.5860    33.7070    42.5100 h1         1 F0Z       0.054700
     25 H12         22.8190    33.8550    44.0790 h1         1 F0Z       0.054700
@<TRIPOS>BOND
     1     1     3 ar  
     2     1     7 ar  
     3     1    14 1   
     4     2     3 1   
     5     2    15 1   
     6     3     4 ar  
     7     4     5 ar  
     8     4     8 1   
     9     5     6 ar  
    10     5    16 1   
    11     6     7 ar  
    12     6    17 1   
    13     7    18 1   
    14     8     9 1   
    15     8    13 2   
    16     9    10 1   
    17     9    19 1   
    18    10    11 1   
    19    10    20 1   
    20    10    21 1   
    21    11    12 1   
    22    11    22 1   
    23    11    23 1   
    24    12    13 1   
    25    12    24 1   
    26    12    25 1   
@<TRIPOS>SUBSTRUCTURE
     1 F0Z         1 TEMP              0 ****  ****    0 ROOT
