@<TRIPOS>MOLECULE
F0Z
   25    26     1     0     0
SMALL
No Charge or Current Charge


@<TRIPOS>ATOM
      1 C1          17.5780    36.7960    41.9880 ca         1 F0Z      -0.129000
      2 S           18.0770    35.2210    44.1840 sh         1 F0Z      -0.169800
      3 C           18.4170    35.8020    42.5270 ca         1 F0Z      -0.056000
      4 C5          19.5160    35.3240    41.7620 ca         1 F0Z      -0.119900
      5 C4          19.7670    35.8990    40.4950 ca         1 F0Z      -0.062000
      6 C3          18.9220    36.8900    39.9710 ca         1 F0Z      -0.119000
      7 C2          17.8210    37.3340    40.7160 ca         1 F0Z      -0.087000
      8 C6          20.4670    34.2860    42.2790 ce         1 F0Z       0.675800
      9 N1          19.9130    33.0920    42.7350 nu         1 F0Z      -0.949400
     10 C9          20.6840    32.1740    43.5820 c6         1 F0Z       0.228800
     11 C8          22.1240    32.1230    43.0430 c6         1 F0Z      -0.127400
     12 C7          22.6720    33.5550    42.8720 c6         1 F0Z       0.115800
     13 N           21.7440    34.4230    42.1180 n2         1 F0Z      -0.663900
     14 H1          16.7320    37.1630    42.5650 ha         1 F0Z       0.114000
     15 H2          17.2050    36.2040    44.5080 hs         1 F0Z       0.196800
     16 H3          20.6180    35.5640    39.9040 ha         1 F0Z       0.129000
     17 H4          19.1220    37.3130    38.9890 ha         1 F0Z       0.120000
     18 H5          17.1650    38.1030    40.3130 ha         1 F0Z       0.115000
     19 H6          18.9080    33.1530    42.8820 hn         1 F0Z       0.491000
     20 H7          20.6910    32.5310    44.6230 h1         1 F0Z       0.043200
     21 H8          20.2440    31.1650    43.5730 h1         1 F0Z       0.043200
     22 H9          22.1360    31.6050    42.0740 hc         1 F0Z       0.051200
     23 H10         22.7660    31.5450    43.7210 hc         1 F0Z       0.051200
     24 H11         23.6420    33.5240    42.3530 h1         1 F0Z       0.054700
     25 H12         22.8400    34.0030    43.8630 h1         1 F0Z       0.054700
@<TRIPOS>BOND
     1     1     3 ar  
     2     1     7 ar  
     3     1    14 1   
     4     2     3 1   
     5     2    15 1   
     6     3     4 ar  
     7     4     5 ar  
     8     4     8 1   
     9     5     6 ar  
    10     5    16 1   
    11     6     7 ar  
    12     6    17 1   
    13     7    18 1   
    14     8     9 1   
    15     8    13 2   
    16     9    10 1   
    17     9    19 1   
    18    10    11 1   
    19    10    20 1   
    20    10    21 1   
    21    11    12 1   
    22    11    22 1   
    23    11    23 1   
    24    12    13 1   
    25    12    24 1   
    26    12    25 1   
@<TRIPOS>SUBSTRUCTURE
     1 F0Z         1 TEMP              0 ****  ****    0 ROOT
