@<TRIPOS>MOLECULE
F10
   37    40     1     0     0
SMALL
No Charge or Current Charge


@<TRIPOS>ATOM
      1 N1           3.3340    -4.3740     1.3860 ns         1 F10      -0.510900
      2 O3           1.9820    -3.6590     3.0610 o          1 F10      -0.559000
      3 C10         -3.3770     1.6500     2.6170 ca         1 F10      -0.070000
      4 C11         -1.0330     0.8160     0.8360 ca         1 F10      -0.142000
      5 C9          -4.1700     2.1720     3.6540 ca         1 F10      -0.132000
      6 C14          0.8710    -1.5570     1.1830 cc         1 F10      -0.070000
      7 C17          3.9610    -4.2400     0.0500 c6         1 F10       0.117000
      8 C18          3.0440    -3.5870    -1.0200 c6         1 F10      -0.025100
      9 C15          1.8050    -2.5820     0.9330 cc         1 F10      -0.233600
     10 C16          2.3450    -3.5620     1.9000 c          1 F10       0.605600
     11 C21         -0.4210     0.8410    -1.4840 ca         1 F10      -0.181000
     12 C22         -1.2930     1.9270    -1.6520 ca         1 F10       0.348900
     13 C19          2.1390    -2.5650    -0.3850 cd         1 F10      -0.122300
     14 C12         -0.2780     0.2590    -0.2120 ca         1 F10       0.044000
     15 C13          0.6270    -0.8850     0.0090 cd         1 F10      -0.154000
     16 C2          -1.8870     1.9170     0.5950 cp         1 F10       0.412500
     17 C4          -2.7240     2.5040     1.6890 cp         1 F10      -0.189500
     18 C5          -2.8920     3.9060     1.8530 ca         1 F10       0.209000
     19 C7          -3.6830     4.4240     2.8920 ca         1 F10      -0.161000
     20 C8          -4.3260     3.5590     3.7920 ca         1 F10      -0.074000
     21 F6          -2.2630     4.7840     1.0390 f          1 F10      -0.165000
     22 N20          1.4160    -1.5190    -0.9690 na         1 F10      -0.079000
     23 N23         -2.0120     2.4530    -0.6390 nb         1 F10      -0.651000
     24 HN1          3.7140    -5.0600     2.0260 hn         1 F10       0.314500
     25 H11         -0.9620     0.4150     1.8410 ha         1 F10       0.132000
     26 H9          -4.6660     1.4980     4.3500 ha         1 F10       0.121000
     27 H14          0.4340    -1.3560     2.1560 ha         1 F10       0.151000
     28 H171         4.2950    -5.2290    -0.2950 h1         1 F10       0.044200
     29 H172         4.8570    -3.6150     0.1740 h1         1 F10       0.044200
     30 H181         2.4330    -4.3690    -1.4900 hc         1 F10       0.062700
     31 H182         3.6550    -3.1460    -1.8190 hc         1 F10       0.062700
     32 H21          0.1270     0.4670    -2.3430 ha         1 F10       0.109000
     33 H22         -1.4210     2.3900    -2.6290 h4         1 F10       0.020100
     34 H7          -3.7920     5.5000     3.0000 ha         1 F10       0.133000
     35 H8          -4.9390     3.9630     4.5960 ha         1 F10       0.118000
     36 HN20         1.4470    -1.2690    -1.9520 hn         1 F10       0.349000
     37 H10         -3.2810     0.5700     2.5250 ha         1 F10       0.119000
@<TRIPOS>BOND
     1     1     7 1   
     2     1    10 1   
     3     1    24 1   
     4     2    10 2   
     5     3     5 ar  
     6     3    17 ar  
     7     3    37 1   
     8     4    14 ar  
     9     4    16 ar  
    10     4    25 1   
    11     5    20 ar  
    12     5    26 1   
    13     6     9 1   
    14     6    15 2   
    15     6    27 1   
    16     7     8 1   
    17     7    28 1   
    18     7    29 1   
    19     8    13 1   
    20     8    30 1   
    21     8    31 1   
    22     9    10 1   
    23     9    13 2   
    24    11    12 ar  
    25    11    14 ar  
    26    11    32 1   
    27    12    23 ar  
    28    12    33 1   
    29    13    22 1   
    30    14    15 1   
    31    15    22 1   
    32    16    17 1   
    33    16    23 ar  
    34    17    18 ar  
    35    18    19 ar  
    36    18    21 1   
    37    19    20 ar  
    38    19    34 1   
    39    20    35 1   
    40    22    36 1   
@<TRIPOS>SUBSTRUCTURE
     1 F10         1 TEMP              0 ****  ****    0 ROOT
