@<TRIPOS>MOLECULE
F10
   37    40     1     0     0
SMALL
abcg2


@<TRIPOS>ATOM
      1 N1           3.2970    -4.3840     1.2620 ns         1 F10      -0.510900
      2 O3           1.9970    -3.8240     3.0350 o          1 F10      -0.559000
      3 C10         -3.4400     1.6470     2.5250 ca         1 F10      -0.070000
      4 C11         -1.0500     0.7760     0.8650 ca         1 F10      -0.142000
      5 C9          -4.2130     2.1940     3.5380 ca         1 F10      -0.132000
      6 C14          0.8300    -1.5880     1.3040 cc         1 F10      -0.070000
      7 C17          3.9540    -3.9990     0.0220 c6         1 F10       0.117000
      8 C18          2.9550    -3.5010    -1.0170 c6         1 F10      -0.025100
      9 C15          1.7680    -2.6040     1.0190 cc         1 F10      -0.233600
     10 C16          2.3530    -3.6310     1.8780 c          1 F10       0.605600
     11 C21         -0.4290     0.7520    -1.4290 ca         1 F10      -0.181000
     12 C22         -1.2750     1.8340    -1.6040 ca         1 F10       0.348900
     13 C19          2.0470    -2.5480    -0.3310 cd         1 F10      -0.122300
     14 C12         -0.2990     0.1910    -0.1570 ca         1 F10       0.044000
     15 C13          0.5710    -0.9360     0.1180 cd         1 F10      -0.154000
     16 C2          -1.8770     1.8550     0.5860 cp         1 F10       0.412500
     17 C4          -2.6940     2.4520     1.6650 cp         1 F10      -0.189500
     18 C5          -2.7500     3.8250     1.8730 ca         1 F10       0.209000
     19 C7          -3.5090     4.3960     2.8760 ca         1 F10      -0.161000
     20 C8          -4.2490     3.5710     3.7110 ca         1 F10      -0.074000
     21 F6          -2.0140     4.6340     1.0970 f          1 F10      -0.165000
     22 N20          1.3250    -1.5490    -0.8600 na         1 F10      -0.079000
     23 N23         -1.9900     2.3840    -0.6330 nb         1 F10      -0.651000
     24 HN1          3.7790    -5.0540     1.8430 hn         1 F10       0.314500
     25 H11         -0.9850     0.4060     1.8790 ha         1 F10       0.132000
     26 H9          -4.7900     1.5470     4.1850 ha         1 F10       0.121000
     27 H14          0.4020    -1.3610     2.2670 ha         1 F10       0.151000
     28 H171         4.4850    -4.8690    -0.3590 h1         1 F10       0.044200
     29 H172         4.6980    -3.2170     0.2070 h1         1 F10       0.044200
     30 H181         2.3800    -4.3360    -1.4300 hc         1 F10       0.062700
     31 H182         3.4920    -3.0370    -1.8450 hc         1 F10       0.062700
     32 H21          0.1120     0.3760    -2.2860 ha         1 F10       0.109000
     33 H22         -1.3790     2.2760    -2.5890 h4         1 F10       0.020100
     34 H7          -3.5110     5.4700     3.0060 ha         1 F10       0.133000
     35 H8          -4.8480     4.0090     4.4980 ha         1 F10       0.118000
     36 HN20         1.3490    -1.2880    -1.8340 hn         1 F10       0.349000
     37 H10         -3.4240     0.5730     2.3830 ha         1 F10       0.119000
@<TRIPOS>BOND
     1     1     7 1   
     2     1    10 1   
     3     1    24 1   
     4     2    10 2   
     5     3     5 ar  
     6     3    17 ar  
     7     3    37 1   
     8     4    14 ar  
     9     4    16 ar  
    10     4    25 1   
    11     5    20 ar  
    12     5    26 1   
    13     6     9 1   
    14     6    15 2   
    15     6    27 1   
    16     7     8 1   
    17     7    28 1   
    18     7    29 1   
    19     8    13 1   
    20     8    30 1   
    21     8    31 1   
    22     9    10 1   
    23     9    13 2   
    24    11    12 ar  
    25    11    14 ar  
    26    11    32 1   
    27    12    23 ar  
    28    12    33 1   
    29    13    22 1   
    30    14    15 1   
    31    15    22 1   
    32    16    17 1   
    33    16    23 ar  
    34    17    18 ar  
    35    18    19 ar  
    36    18    21 1   
    37    19    20 ar  
    38    19    34 1   
    39    20    35 1   
    40    22    36 1   
@<TRIPOS>SUBSTRUCTURE
     1 F10         1 TEMP              0 ****  ****    0 ROOT
