@<TRIPOS>MOLECULE
F11
   71    76     1     0     0
SMALL
bcc


@<TRIPOS>ATOM
      1 C1          -6.7520     0.8060    -0.3050 ca         1 F11       0.453100
      2 C2          -5.4650     0.7390     0.2910 ca         1 F11      -0.188600
      3 C3          -4.8040     1.9730     0.8540 c6         1 F11      -0.017100
      4 C4          -5.4050     3.2770     0.3500 c6         1 F11      -0.077400
      5 C5          -6.9220     3.2300     0.4050 c6         1 F11      -0.074400
      6 C6          -7.4330     2.1330    -0.5150 c6         1 F11      -0.132700
      7 N7          -7.4230    -0.2490    -0.7010 nb         1 F11      -0.684500
      8 C8          -6.8690    -1.4700    -0.5630 ca         1 F11       0.416100
      9 C9          -5.5800    -1.6600    -0.0080 ca         1 F11      -0.177800
     10 C10         -4.8820    -0.5050     0.4450 ca         1 F11       0.147100
     11 N11         -3.6320    -0.6110     1.0650 nu         1 F11      -0.730100
     12 C14         -5.0520    -2.9700     0.0570 ca         1 F11      -0.117500
     13 C15         -5.7830    -4.0420    -0.3800 ca         1 F11      -0.127000
     14 C16         -7.0770    -3.8540    -0.9040 ca         1 F11      -0.121500
     15 C17         -7.6050    -2.5970    -0.9980 ca         1 F11      -0.165800
     16 C19          2.5120     0.4760     0.1770 c3         1 F11       0.182800
     17 C20          1.2900     0.2610     1.0500 c3         1 F11      -0.079900
     18 C21          0.0240     0.0770     0.2250 c3         1 F11      -0.075400
     19 C24         -1.2130    -0.1630     1.0790 c3         1 F11      -0.079900
     20 C25         -2.4600    -0.3410     0.2320 c3         1 F11       0.182800
     21 C26          6.7560    -0.8620    -0.3860 ca         1 F11       0.453100
     22 C27          5.4640    -0.7410     0.1860 ca         1 F11      -0.188600
     23 C28          4.7260    -1.9500     0.7060 c6         1 F11      -0.017100
     24 C29          5.2790    -3.2760     0.2050 c6         1 F11      -0.077400
     25 C30          6.7950    -3.3000     0.2870 c6         1 F11      -0.074400
     26 C31          7.3690    -2.2190    -0.6140 c6         1 F11      -0.132700
     27 N32          7.4950     0.1630    -0.7390 nb         1 F11      -0.684500
     28 C33          7.0060     1.4090    -0.5810 ca         1 F11       0.416100
     29 C34          5.7210     1.6550    -0.0430 ca         1 F11      -0.177800
     30 C35          4.9520     0.5300     0.3690 ca         1 F11       0.147100
     31 N36          3.7090     0.6920     0.9870 nu         1 F11      -0.730100
     32 C39          5.2640     2.9900     0.0460 ca         1 F11      -0.117500
     33 C40          6.0590     4.0300    -0.3530 ca         1 F11      -0.127000
     34 C41          7.3490     3.7840    -0.8610 ca         1 F11      -0.121500
     35 C42          7.8090     2.5030    -0.9760 ca         1 F11      -0.165800
     36 H3C1        -4.8910     1.9280     1.9450 hc         1 F11       0.054450
     37 H3C2        -3.7330     1.9710     0.6540 hc         1 F11       0.054450
     38 H4C1        -5.0170     4.1060     0.9450 hc         1 F11       0.041200
     39 H4C2        -5.0870     3.4590    -0.6810 hc         1 F11       0.041200
     40 H5C1        -7.2500     3.0430     1.4330 hc         1 F11       0.045450
     41 H5C2        -7.3530     4.1880     0.1090 hc         1 F11       0.045450
     42 H6C1        -8.5090     1.9920    -0.4080 hc         1 F11       0.062200
     43 H6C2        -7.2700     2.4340    -1.5560 hc         1 F11       0.062200
     44 H11         -3.5240    -1.5070     1.5200 hn         1 F11       0.380800
     45 H14         -4.0550    -3.1460     0.4400 ha         1 F11       0.123000
     46 H15         -5.3640    -5.0380    -0.3260 ha         1 F11       0.131500
     47 H16         -7.6460    -4.7100    -1.2410 ha         1 F11       0.134000
     48 H17         -8.5930    -2.4340    -1.4090 ha         1 F11       0.148000
     49 H191         2.6670    -0.3950    -0.4620 h1         1 F11       0.036450
     50 H192         2.3390     1.3180    -0.5080 h1         1 F11       0.036450
     51 H201         1.1630     1.1150     1.7230 hc         1 F11       0.048700
     52 H202         1.4570    -0.6130     1.6870 hc         1 F11       0.048700
     53 H211         0.1580    -0.7620    -0.4650 hc         1 F11       0.039700
     54 H212        -0.1330     0.9620    -0.4000 hc         1 F11       0.039700
     55 H241        -1.0590    -1.0540     1.6970 hc         1 F11       0.048700
     56 H242        -1.3640     0.6720     1.7690 hc         1 F11       0.048700
     57 H251        -2.6410     0.5650    -0.3490 h1         1 F11       0.036450
     58 H252        -2.3020    -1.1400    -0.5040 h1         1 F11       0.036450
     59 H282         3.6650    -1.8960     0.4660 hc         1 F11       0.054450
     60 H291         4.8420    -4.0890     0.7860 hc         1 F11       0.041200
     61 H292         4.9710    -3.4380    -0.8330 hc         1 F11       0.041200
     62 H301         7.1130    -3.1370     1.3220 hc         1 F11       0.045450
     63 H302         7.1850    -4.2740    -0.0100 hc         1 F11       0.045450
     64 H311         8.4520    -2.1370    -0.5010 hc         1 F11       0.062200
     65 H312         7.1940    -2.4990    -1.6590 hc         1 F11       0.062200
     66 H36          3.6430     1.5760     1.4710 hn         1 F11       0.380800
     67 H39          4.2690     3.2060     0.4130 ha         1 F11       0.123000
     68 H40          5.6930     5.0450    -0.2850 ha         1 F11       0.131500
     69 H41          7.9700     4.6150    -1.1690 ha         1 F11       0.134000
     70 H42          8.7930     2.2930    -1.3770 ha         1 F11       0.148000
     71 H281         4.7720    -1.9210     1.8000 hc         1 F11       0.054450
@<TRIPOS>BOND
     1     1     2 ar  
     2     1     6 1   
     3     1     7 ar  
     4     2     3 1   
     5     2    10 ar  
     6     3     4 1   
     7     3    36 1   
     8     3    37 1   
     9     4     5 1   
    10     4    38 1   
    11     4    39 1   
    12     5     6 1   
    13     5    40 1   
    14     5    41 1   
    15     6    42 1   
    16     6    43 1   
    17     7     8 ar  
    18     8     9 ar  
    19     8    15 ar  
    20     9    10 ar  
    21     9    12 ar  
    22    10    11 1   
    23    11    20 1   
    24    11    44 1   
    25    12    13 ar  
    26    12    45 1   
    27    13    14 ar  
    28    13    46 1   
    29    14    15 ar  
    30    14    47 1   
    31    15    48 1   
    32    16    17 1   
    33    16    31 1   
    34    16    49 1   
    35    16    50 1   
    36    17    18 1   
    37    17    51 1   
    38    17    52 1   
    39    18    19 1   
    40    18    53 1   
    41    18    54 1   
    42    19    20 1   
    43    19    55 1   
    44    19    56 1   
    45    20    57 1   
    46    20    58 1   
    47    21    22 ar  
    48    21    26 1   
    49    21    27 ar  
    50    22    23 1   
    51    22    30 ar  
    52    23    24 1   
    53    23    59 1   
    54    23    71 1   
    55    24    25 1   
    56    24    60 1   
    57    24    61 1   
    58    25    26 1   
    59    25    62 1   
    60    25    63 1   
    61    26    64 1   
    62    26    65 1   
    63    27    28 ar  
    64    28    29 ar  
    65    28    35 ar  
    66    29    30 ar  
    67    29    32 ar  
    68    30    31 1   
    69    31    66 1   
    70    32    33 ar  
    71    32    67 1   
    72    33    34 ar  
    73    33    68 1   
    74    34    35 ar  
    75    34    69 1   
    76    35    70 1   
@<TRIPOS>SUBSTRUCTURE
     1 F11         1 TEMP              0 ****  ****    0 ROOT
