@<TRIPOS>MOLECULE
F11
   71    76     1     0     0
SMALL
No Charge or Current Charge


@<TRIPOS>ATOM
      1 C1          -7.0150     0.8680    -0.2980 ca         1 F11       0.387800
      2 C2          -5.6850     0.9220     0.1700 ca         1 F11      -0.123300
      3 C3          -5.0070     2.2810     0.4500 c6         1 F11      -0.017100
      4 C4          -5.7360     3.4890    -0.1820 c6         1 F11      -0.077400
      5 C5          -7.2540     3.4020     0.0580 c6         1 F11      -0.074400
      6 C6          -7.8240     2.1310    -0.6090 c6         1 F11      -0.132700
      7 N7          -7.6810    -0.2850    -0.5130 nb         1 F11      -0.684500
      8 C8          -7.0630    -1.4560    -0.2560 ca         1 F11       0.285500
      9 C9          -5.7330    -1.5130     0.2290 ca         1 F11      -0.112500
     10 C10         -5.0340    -0.3010     0.4400 ca         1 F11       0.285500
     11 N11         -3.7210    -0.3140     0.9340 nu         1 F11      -0.923700
     12 C14         -5.1360    -2.7750     0.4800 ca         1 F11      -0.099500
     13 C15         -5.8530    -3.9600     0.2550 ca         1 F11      -0.109000
     14 C16         -7.1690    -3.9030    -0.2230 ca         1 F11      -0.103500
     15 C17         -7.7650    -2.6570    -0.4760 ca         1 F11      -0.082500
     16 C19          2.5860     0.2140     0.0490 c3         1 F11       0.182800
     17 C20          1.3130     0.1000     0.9090 c3         1 F11      -0.079900
     18 C21          0.0250     0.0010     0.0630 c3         1 F11      -0.075400
     19 C24         -1.2550    -0.1150     0.9200 c3         1 F11      -0.079900
     20 C25         -2.5370    -0.2110     0.0700 c3         1 F11       0.182800
     21 C26          7.0620    -0.8510    -0.3840 ca         1 F11       0.387800
     22 C27          5.7370    -0.9170     0.0950 ca         1 F11      -0.123300
     23 C28          5.0630    -2.2820     0.3540 c6         1 F11      -0.017100
     24 C29          5.7870    -3.4760    -0.3090 c6         1 F11      -0.077400
     25 C30          7.3080    -3.3910    -0.0820 c6         1 F11      -0.074400
     26 C31          7.8700    -2.1060    -0.7290 c6         1 F11      -0.132700
     27 N32          7.7240     0.3070    -0.5820 nb         1 F11      -0.684500
     28 C33          7.1080     1.4710    -0.2960 ca         1 F11       0.285500
     29 C34          5.7820     1.5170     0.2030 ca         1 F11      -0.112500
     30 C35          5.0870     0.3000     0.3960 ca         1 F11       0.285500
     31 N36          3.7790     0.3010     0.9030 nu         1 F11      -0.923700
     32 C39          5.1860     2.7730     0.4850 ca         1 F11      -0.099500
     33 C40          5.8990     3.9630     0.2770 ca         1 F11      -0.109000
     34 C41          7.2100     3.9170    -0.2150 ca         1 F11      -0.103500
     35 C42          7.8050     2.6780    -0.4990 ca         1 F11      -0.082500
     36 H3C1        -4.9520     2.4250     1.5380 hc         1 F11       0.054450
     37 H3C2        -3.9700     2.2820     0.0950 hc         1 F11       0.054450
     38 H4C1        -5.3390     4.4240     0.2360 hc         1 F11       0.041200
     39 H4C2        -5.5340     3.5190    -1.2620 hc         1 F11       0.041200
     40 H5C1        -7.4590     3.3830     1.1370 hc         1 F11       0.045450
     41 H5C2        -7.7550     4.2940    -0.3440 hc         1 F11       0.045450
     42 H6C1        -8.8690     1.9970    -0.2970 hc         1 F11       0.062200
     43 H6C2        -7.8450     2.2710    -1.6980 hc         1 F11       0.062200
     44 H11         -3.6030    -0.9870     1.6910 hn         1 F11       0.436000
     45 H14         -4.1150    -2.8530     0.8440 ha         1 F11       0.105000
     46 H15         -5.3860    -4.9240     0.4490 ha         1 F11       0.113500
     47 H16         -7.7270    -4.8200    -0.3990 ha         1 F11       0.116000
     48 H17         -8.7850    -2.6180    -0.8470 ha         1 F11       0.130000
     49 H191         2.6520    -0.6580    -0.6140 h1         1 F11       0.036450
     50 H192         2.5190     1.1090    -0.5850 h1         1 F11       0.036450
     51 H201         1.2440     0.9730     1.5700 hc         1 F11       0.048700
     52 H202         1.3920    -0.7870     1.5510 hc         1 F11       0.048700
     53 H211         0.0950    -0.8710    -0.5990 hc         1 F11       0.039700
     54 H212        -0.0520     0.8860    -0.5810 hc         1 F11       0.039700
     55 H241        -1.1800    -1.0010     1.5620 hc         1 F11       0.048700
     56 H242        -1.3280     0.7590     1.5790 hc         1 F11       0.048700
     57 H251        -2.6080     0.6740    -0.5760 h1         1 F11       0.036450
     58 H252        -2.4760    -1.0940    -0.5820 h1         1 F11       0.036450
     59 H282         4.0230    -2.2770     0.0090 hc         1 F11       0.054450
     60 H291         5.3960    -4.4200     0.0940 hc         1 F11       0.041200
     61 H292         5.5750    -3.4840    -1.3880 hc         1 F11       0.041200
     62 H301         7.5240    -3.3940     0.9950 hc         1 F11       0.045450
     63 H302         7.8060    -4.2740    -0.5060 hc         1 F11       0.045450
     64 H311         8.9180    -1.9770    -0.4240 hc         1 F11       0.062200
     65 H312         7.8810    -2.2240    -1.8200 hc         1 F11       0.062200
     66 H36          3.6680     0.9580     1.6750 hn         1 F11       0.436000
     67 H39          4.1680     2.8410     0.8600 ha         1 F11       0.105000
     68 H40          5.4330     4.9220     0.4950 ha         1 F11       0.113500
     69 H41          7.7650     4.8390    -0.3780 ha         1 F11       0.116000
     70 H42          8.8220     2.6480    -0.8800 ha         1 F11       0.130000
     71 H281         5.0190    -2.4480     1.4390 hc         1 F11       0.054450
@<TRIPOS>BOND
     1     1     2 ar  
     2     1     6 1   
     3     1     7 ar  
     4     2     3 1   
     5     2    10 ar  
     6     3     4 1   
     7     3    36 1   
     8     3    37 1   
     9     4     5 1   
    10     4    38 1   
    11     4    39 1   
    12     5     6 1   
    13     5    40 1   
    14     5    41 1   
    15     6    42 1   
    16     6    43 1   
    17     7     8 ar  
    18     8     9 ar  
    19     8    15 ar  
    20     9    10 ar  
    21     9    12 ar  
    22    10    11 1   
    23    11    20 1   
    24    11    44 1   
    25    12    13 ar  
    26    12    45 1   
    27    13    14 ar  
    28    13    46 1   
    29    14    15 ar  
    30    14    47 1   
    31    15    48 1   
    32    16    17 1   
    33    16    31 1   
    34    16    49 1   
    35    16    50 1   
    36    17    18 1   
    37    17    51 1   
    38    17    52 1   
    39    18    19 1   
    40    18    53 1   
    41    18    54 1   
    42    19    20 1   
    43    19    55 1   
    44    19    56 1   
    45    20    57 1   
    46    20    58 1   
    47    21    22 ar  
    48    21    26 1   
    49    21    27 ar  
    50    22    23 1   
    51    22    30 ar  
    52    23    24 1   
    53    23    59 1   
    54    23    71 1   
    55    24    25 1   
    56    24    60 1   
    57    24    61 1   
    58    25    26 1   
    59    25    62 1   
    60    25    63 1   
    61    26    64 1   
    62    26    65 1   
    63    27    28 ar  
    64    28    29 ar  
    65    28    35 ar  
    66    29    30 ar  
    67    29    32 ar  
    68    30    31 1   
    69    31    66 1   
    70    32    33 ar  
    71    32    67 1   
    72    33    34 ar  
    73    33    68 1   
    74    34    35 ar  
    75    34    69 1   
    76    35    70 1   
@<TRIPOS>SUBSTRUCTURE
     1 F11         1 TEMP              0 ****  ****    0 ROOT
