@<TRIPOS>MOLECULE
F12
   18    18     1     0     0
SMALL
No Charge or Current Charge


@<TRIPOS>ATOM
      1 O9          -1.0110     2.2800    -0.0130 o          1 F12      -0.725500
      2 C7          -1.7760     1.3240    -0.0000 c          1 F12       0.738600
      3 O8          -2.9900     1.4630     0.0030 o          1 F12      -0.725500
      4 C3          -1.2160    -0.0650     0.0120 cc         1 F12      -0.226600
      5 C4          -2.0430    -1.2250     0.0270 cc         1 F12      -0.061000
      6 C5          -1.3590    -2.4130     0.0360 cd         1 F12      -0.324000
      7 S6           0.3910    -2.1470     0.0270 ss         1 F12       0.147000
      8 C2           0.1270    -0.3870     0.0100 cd         1 F12      -0.041400
      9 N1           1.1200     0.5810    -0.0040 ns         1 F12      -0.375100
     10 C13          2.4930     0.4440    -0.0080 c          1 F12       0.588100
     11 O14          3.0740    -0.6330     0.0010 o          1 F12      -0.634100
     12 C12          3.2530     1.7680    -0.0240 c3         1 F12      -0.169100
     13 H4          -3.1290    -1.1630     0.0300 ha         1 F12       0.134000
     14 H5          -1.7610    -3.4190     0.0480 h4         1 F12       0.121000
     15 HN1          0.8010     1.5480    -0.0120 hn         1 F12       0.393500
     16 H121         4.3410     1.6320    -0.0270 hc         1 F12       0.053367
     17 H122         2.9190     2.3630    -0.8820 hc         1 F12       0.053367
     18 H123         2.9260     2.3800     0.8240 hc         1 F12       0.053367
@<TRIPOS>BOND
     1     1     2 1   
     2     2     3 1   
     3     2     4 1   
     4     4     5 1   
     5     4     8 2   
     6     5     6 2   
     7     5    13 1   
     8     6     7 1   
     9     6    14 1   
    10     7     8 1   
    11     8     9 1   
    12     9    10 1   
    13     9    15 1   
    14    10    11 2   
    15    10    12 1   
    16    12    16 1   
    17    12    17 1   
    18    12    18 1   
@<TRIPOS>SUBSTRUCTURE
     1 F12         1 TEMP              0 ****  ****    0 ROOT
