@<TRIPOS>MOLECULE
F12
   18    18     1     0     0
SMALL
bcc


@<TRIPOS>ATOM
      1 O9          -1.0300     2.3120     0.0010 o          1 F12      -0.830800
      2 C7          -1.8380     1.3460     0.0100 c          1 F12       0.949200
      3 O8          -3.0770     1.4290     0.0140 o          1 F12      -0.830800
      4 C3          -1.2450    -0.0350     0.0150 cc         1 F12      -0.226600
      5 C4          -2.0020    -1.2430     0.0250 cc         1 F12      -0.079000
      6 C5          -1.2340    -2.3610     0.0290 cd         1 F12      -0.197100
      7 S6           0.4510    -1.9860     0.0210 ss         1 F12      -0.142800
      8 C2           0.1050    -0.2950     0.0130 cd         1 F12       0.103500
      9 N1           1.0780     0.6760     0.0050 ns         1 F12      -0.442100
     10 C13          2.4110     0.4520    -0.0070 c          1 F12       0.655100
     11 O14          2.8710    -0.6800    -0.0040 o          1 F12      -0.634100
     12 C12          3.2540     1.6970    -0.0290 c3         1 F12      -0.169100
     13 H4          -3.0820    -1.2610     0.0280 ha         1 F12       0.152000
     14 H5          -1.5540    -3.3920     0.0360 h4         1 F12       0.139000
     15 HN1          0.6620     1.6140    -0.0010 hn         1 F12       0.393500
     16 H121         4.3090     1.4420     0.0150 hc         1 F12       0.053367
     17 H122         3.0690     2.2690    -0.9390 hc         1 F12       0.053367
     18 H123         3.0130     2.3450     0.8150 hc         1 F12       0.053367
@<TRIPOS>BOND
     1     1     2 1   
     2     2     3 1   
     3     2     4 1   
     4     4     5 1   
     5     4     8 2   
     6     5     6 2   
     7     5    13 1   
     8     6     7 1   
     9     6    14 1   
    10     7     8 1   
    11     8     9 1   
    12     9    10 1   
    13     9    15 1   
    14    10    11 2   
    15    10    12 1   
    16    12    16 1   
    17    12    17 1   
    18    12    18 1   
@<TRIPOS>SUBSTRUCTURE
     1 F12         1 TEMP              0 ****  ****    0 ROOT
