@<TRIPOS>MOLECULE
F13
   31    33     1     0     0
SMALL
No Charge or Current Charge


@<TRIPOS>ATOM
      1 F21         -6.0010     2.1010    -0.0170 f          1 F13      -0.171000
      2 C16         -5.2140     1.0060    -0.0920 ca         1 F13       0.167000
      3 C15         -3.8190     1.1420    -0.0070 ca         1 F13      -0.097000
      4 C17         -5.7960    -0.2590    -0.2520 ca         1 F13      -0.128000
      5 C18         -4.9760    -1.3960    -0.3290 ca         1 F13      -0.091000
      6 C19         -3.5780    -1.2680    -0.2460 ca         1 F13      -0.107000
      7 C14         -2.9750     0.0070    -0.0830 ca         1 F13      -0.129600
      8 C13         -1.4690     0.1890     0.0120 c          1 F13       0.617700
      9 O20         -0.9750     1.3020     0.1530 o          1 F13      -0.556100
     10 N12         -0.7130    -0.9750    -0.0680 ns         1 F13      -0.143000
     11 C10          0.6890    -1.2200    -0.0320 ca         1 F13      -0.017000
     12 C9           1.1090    -2.5610    -0.0750 ca         1 F13      -0.152000
     13 C8           2.4730    -2.8850    -0.0450 ca         1 F13      -0.081000
     14 C7           3.4370    -1.8680     0.0280 ca         1 F13      -0.126000
     15 C6           3.0460    -0.5120     0.0710 ca         1 F13      -0.114500
     16 C11          1.6660    -0.1990     0.0390 ca         1 F13      -0.085000
     17 C4           4.0480     0.5650     0.1450 cc         1 F13       0.454000
     18 N5           3.8200     1.8630     0.1880 nd         1 F13      -0.376000
     19 N1           5.0490     2.4780     0.2510 nd         1 F13      -0.039000
     20 N2           6.0240     1.6100     0.2490 nc         1 F13      -0.205800
     21 N3           5.4040     0.4050     0.1820 na         1 F13      -0.212700
     22 H15         -3.3990     2.1370     0.1170 ha         1 F13       0.157000
     23 H17         -6.8770    -0.3550    -0.3170 ha         1 F13       0.137000
     24 H18         -5.4250    -2.3800    -0.4540 ha         1 F13       0.123000
     25 H19         -2.9800    -2.1740    -0.3100 ha         1 F13       0.117000
     26 HN12        -1.2640    -1.8160    -0.1740 hn         1 F13       0.155000
     27 H9           0.3730    -3.3610    -0.1320 ha         1 F13       0.114000
     28 H8           2.7840    -3.9270    -0.0780 ha         1 F13       0.120000
     29 H7           4.4880    -2.1480     0.0500 ha         1 F13       0.109000
     30 H11          1.3710     0.8450     0.0680 ha         1 F13       0.177000
     31 HN3          5.9130    -0.4680     0.1650 hn         1 F13       0.385000
@<TRIPOS>BOND
     1     1     2 1   
     2     2     3 ar  
     3     2     4 ar  
     4     3     7 ar  
     5     3    22 1   
     6     4     5 ar  
     7     4    23 1   
     8     5     6 ar  
     9     5    24 1   
    10     6     7 ar  
    11     6    25 1   
    12     7     8 1   
    13     8     9 2   
    14     8    10 1   
    15    10    11 1   
    16    10    26 1   
    17    11    12 ar  
    18    11    16 ar  
    19    12    13 ar  
    20    12    27 1   
    21    13    14 ar  
    22    13    28 1   
    23    14    15 ar  
    24    14    29 1   
    25    15    16 ar  
    26    15    17 1   
    27    16    30 1   
    28    17    18 2   
    29    17    21 1   
    30    18    19 1   
    31    19    20 2   
    32    20    21 1   
    33    21    31 1   
@<TRIPOS>SUBSTRUCTURE
     1 F13         1 TEMP              0 ****  ****    0 ROOT
