@<TRIPOS>MOLECULE
F13
   31    33     1     0     0
SMALL
abcg2


@<TRIPOS>ATOM
      1 F21         -5.8120     1.8460     0.8240 f          1 F13      -0.171000
      2 C16         -5.0530     0.8750     0.2940 ca         1 F13       0.167000
      3 C15         -3.6820     0.9790     0.3920 ca         1 F13      -0.097000
      4 C17         -5.6750    -0.1880    -0.3350 ca         1 F13      -0.128000
      5 C18         -4.8800    -1.1830    -0.8810 ca         1 F13      -0.091000
      6 C19         -3.4970    -1.1150    -0.7880 ca         1 F13      -0.107000
      7 C14         -2.8940    -0.0370    -0.1430 ca         1 F13      -0.129600
      8 C13         -1.4110     0.1140    -0.0280 c          1 F13       0.617700
      9 O20         -0.8960     1.2150     0.0530 o          1 F13      -0.556100
     10 N12         -0.7180    -1.0530    -0.0070 ns         1 F13      -0.143000
     11 C10          0.6600    -1.2540     0.0820 ca         1 F13      -0.017000
     12 C9           1.0890    -2.5710     0.2710 ca         1 F13      -0.152000
     13 C8           2.4350    -2.8660     0.3630 ca         1 F13      -0.081000
     14 C7           3.3850    -1.8610     0.2700 ca         1 F13      -0.126000
     15 C6           2.9640    -0.5490     0.0790 ca         1 F13      -0.114500
     16 C11          1.6080    -0.2390    -0.0170 ca         1 F13      -0.085000
     17 C4           3.9220     0.5440    -0.0260 cc         1 F13       0.454000
     18 N5           3.6430     1.8160    -0.2080 nd         1 F13      -0.376000
     19 N1           4.8060     2.4590    -0.2420 nd         1 F13      -0.039000
     20 N2           5.7820     1.6540    -0.0920 nc         1 F13      -0.205800
     21 N3           5.2530     0.4510     0.0440 na         1 F13      -0.212700
     22 H15         -3.2350     1.8320     0.8830 ha         1 F13       0.157000
     23 H17         -6.7540    -0.2350    -0.3980 ha         1 F13       0.137000
     24 H18         -5.3430    -2.0170    -1.3900 ha         1 F13       0.123000
     25 H19         -2.9060    -1.8970    -1.2480 ha         1 F13       0.117000
     26 HN12        -1.2630    -1.9000     0.0380 hn         1 F13       0.155000
     27 H9           0.3600    -3.3690     0.3450 ha         1 F13       0.114000
     28 H8           2.7470    -3.8910     0.5100 ha         1 F13       0.120000
     29 H7           4.4340    -2.1140     0.3520 ha         1 F13       0.109000
     30 H11          1.3120     0.7850    -0.1690 ha         1 F13       0.177000
     31 HN3          5.8510    -0.3520     0.1790 hn         1 F13       0.385000
@<TRIPOS>BOND
     1     1     2 1   
     2     2     3 ar  
     3     2     4 ar  
     4     3     7 ar  
     5     3    22 1   
     6     4     5 ar  
     7     4    23 1   
     8     5     6 ar  
     9     5    24 1   
    10     6     7 ar  
    11     6    25 1   
    12     7     8 1   
    13     8     9 2   
    14     8    10 1   
    15    10    11 1   
    16    10    26 1   
    17    11    12 ar  
    18    11    16 ar  
    19    12    13 ar  
    20    12    27 1   
    21    13    14 ar  
    22    13    28 1   
    23    14    15 ar  
    24    14    29 1   
    25    15    16 ar  
    26    15    17 1   
    27    16    30 1   
    28    17    18 2   
    29    17    21 1   
    30    18    19 1   
    31    19    20 2   
    32    20    21 1   
    33    21    31 1   
@<TRIPOS>SUBSTRUCTURE
     1 F13         1 TEMP              0 ****  ****    0 ROOT
