@<TRIPOS>MOLECULE
F14
   50    53     1     0     0
SMALL
abcg2


@<TRIPOS>ATOM
      1 C1           7.4260     0.5020     0.4600 ca         1 F14       0.142100
      2 C2           6.9740     0.7150    -0.8400 ca         1 F14      -0.165500
      3 C3           5.6180     0.9050    -1.0820 ca         1 F14      -0.078000
      4 O2          -6.6510    -1.6430     1.8700 o          1 F14      -0.449000
      5 C11          0.2910    -0.6310    -0.9550 ca         1 F14      -0.057300
      6 C12          1.2170     0.3730    -0.7190 ca         1 F14      -0.124000
      7 C13         -1.1550    -0.2750    -1.2180 c3         1 F14       0.279800
      8 C14         -1.5850    -0.6700    -2.6300 c3         1 F14      -0.117100
      9 C15         -3.2510    -0.4590     0.0340 cc         1 F14       0.791900
     10 C16         -6.4220    -0.6100     1.2980 c          1 F14       0.557800
     11 C17         -7.4080     0.5130     1.1340 c6         1 F14      -0.281700
     12 C18         -6.9370     1.7390     0.4110 c2         1 F14       0.469300
     13 C19         -7.9210     2.8450     0.2840 c3         1 F14      -0.145400
     14 C20         -4.9020     0.8270     0.0650 cd         1 F14       0.655500
     15 N3          -5.7660     1.8730    -0.0870 nf         1 F14      -0.603700
     16 N2          -5.2090    -0.3340     0.7120 n          1 F14      -0.091500
     17 N1          -4.1410    -1.1720     0.6870 nd         1 F14      -0.556800
     18 N4          -3.6800     0.7770    -0.3710 nc         1 F14      -0.687000
     19 N           -1.9880    -0.8810    -0.1880 nu         1 F14      -0.899100
     20 C10          0.7130    -1.9600    -0.9590 ca         1 F14      -0.140000
     21 C9           2.0430    -2.2620    -0.7230 ca         1 F14      -0.077000
     22 C8           2.9780    -1.2600    -0.4890 ca         1 F14      -0.179000
     23 C7           2.5570     0.0620    -0.4910 ca         1 F14       0.137100
     24 C4           4.7160     0.8910    -0.0350 ca         1 F14       0.054100
     25 C5           5.1580     0.6800     1.2650 ca         1 F14      -0.078000
     26 C6           6.5050     0.4880     1.5110 ca         1 F14      -0.165500
     27 O            8.7150     0.3050     0.7950 os         1 F14      -0.339100
     28 C            9.6880     0.3180    -0.2310 c3         1 F14       0.147900
     29 H1           7.6560     0.7350    -1.6790 ha         1 F14       0.126500
     30 H2           5.2750     1.0720    -2.0950 ha         1 F14       0.129500
     31 H3           0.9060     1.4110    -0.7120 ha         1 F14       0.132000
     32 H4          -1.2600     0.8060    -1.1160 h1         1 F14       0.088700
     33 H5          -2.6180    -0.3740    -2.8120 hc         1 F14       0.045033
     34 H6          -0.9590    -0.1750    -3.3720 hc         1 F14       0.045033
     35 H7          -1.5070    -1.7470    -2.7830 hc         1 F14       0.045033
     36 H8          -8.2910     0.1210     0.6170 hc         1 F14       0.106200
     37 H9          -7.7690     0.8020     2.1260 hc         1 F14       0.106200
     38 H10         -8.2260     3.1910     1.2730 hc         1 F14       0.067033
     39 H11         -7.5040     3.6800    -0.2730 hc         1 F14       0.067033
     40 H12         -8.8240     2.4930    -0.2180 hc         1 F14       0.067033
     41 H13         -1.8310    -1.8590     0.0060 hn         1 F14       0.491000
     42 H14          0.0130    -2.7650    -1.1480 ha         1 F14       0.111000
     43 H15          2.3680    -3.2950    -0.7220 ha         1 F14       0.113000
     44 H16          4.0120    -1.5230    -0.3100 ha         1 F14       0.127000
     45 H17          4.4520     0.6690     2.0850 ha         1 F14       0.129500
     46 H18          6.8530     0.3250     2.5230 ha         1 F14       0.126500
     47 H19         10.6470     0.1440     0.2500 h1         1 F14       0.042367
     48 H20          9.5140    -0.4690    -0.9690 h1         1 F14       0.042367
     49 H21          9.7230     1.2810    -0.7470 h1         1 F14       0.042367
     50 O1           3.3820     1.1230    -0.2770 os         1 F14      -0.248200
@<TRIPOS>BOND
     1     1     2 ar  
     2     1    26 ar  
     3     1    27 1   
     4     2     3 ar  
     5     2    29 1   
     6     3    24 ar  
     7     3    30 1   
     8     4    10 2   
     9     5     6 ar  
    10     5     7 1   
    11     5    20 ar  
    12     6    23 ar  
    13     6    31 1   
    14     7     8 1   
    15     7    19 1   
    16     7    32 1   
    17     8    33 1   
    18     8    34 1   
    19     8    35 1   
    20     9    17 2   
    21     9    18 1   
    22     9    19 1   
    23    10    11 1   
    24    10    16 1   
    25    11    12 1   
    26    11    36 1   
    27    11    37 1   
    28    12    13 1   
    29    12    15 2   
    30    13    38 1   
    31    13    39 1   
    32    13    40 1   
    33    14    15 1   
    34    14    16 1   
    35    14    18 2   
    36    16    17 1   
    37    19    41 1   
    38    20    21 ar  
    39    20    42 1   
    40    21    22 ar  
    41    21    43 1   
    42    22    23 ar  
    43    22    44 1   
    44    23    50 1   
    45    24    25 ar  
    46    24    50 1   
    47    25    26 ar  
    48    25    45 1   
    49    26    46 1   
    50    27    28 1   
    51    28    47 1   
    52    28    48 1   
    53    28    49 1   
@<TRIPOS>SUBSTRUCTURE
     1 F14         1 TEMP              0 ****  ****    0 ROOT
