@<TRIPOS>MOLECULE
F14
   50    53     1     0     0
SMALL
No Charge or Current Charge


@<TRIPOS>ATOM
      1 C1           7.3110     0.8160     0.4780 ca         1 F14       0.142100
      2 C2           6.5210     0.5460    -0.6620 ca         1 F14      -0.165500
      3 C3           5.1230     0.4420    -0.5420 ca         1 F14      -0.078000
      4 O2          -6.4070    -1.1740     2.3740 o          1 F14      -0.449000
      5 C11          0.2800    -0.8620    -1.0250 ca         1 F14      -0.057300
      6 C12          1.1050     0.0280    -0.3060 ca         1 F14      -0.124000
      7 C13         -1.0920    -0.3980    -1.5190 c3         1 F14       0.279800
      8 C14         -1.2850    -0.6170    -3.0330 c3         1 F14      -0.117100
      9 C15         -3.3110    -0.6140    -0.3520 cc         1 F14       0.791900
     10 C16         -6.2820    -0.4280     1.4120 c          1 F14       0.557800
     11 C17         -7.3350     0.6250     1.0700 c6         1 F14      -0.281700
     12 C18         -6.7190     1.8920     0.5150 c2         1 F14       0.469300
     13 C19         -7.5700     3.1360     0.5070 c3         1 F14      -0.145400
     14 C20         -4.8540     0.7010    -0.1470 cd         1 F14       0.655500
     15 N3          -5.5990     1.8500    -0.1560 nf         1 F14      -0.603700
     16 N2          -5.1280    -0.4050     0.6170 n          1 F14      -0.091500
     17 N1          -4.0500    -1.2750     0.4990 nd         1 F14      -0.556800
     18 N4          -3.7200     0.5930    -0.7880 nc         1 F14      -0.687000
     19 N           -2.1400    -1.1100    -0.7830 nu         1 F14      -0.899100
     20 C10          0.7370    -2.1780    -1.2600 ca         1 F14      -0.140000
     21 C9           1.9950    -2.5920    -0.7900 ca         1 F14      -0.077000
     22 C8           2.8100    -1.6950    -0.0810 ca         1 F14      -0.179000
     23 C7           2.3680    -0.3800     0.1530 ca         1 F14       0.137100
     24 C4           4.5090     0.5980     0.7180 ca         1 F14       0.054100
     25 C5           5.2930     0.8790     1.8480 ca         1 F14      -0.078000
     26 C6           6.6900     0.9830     1.7270 ca         1 F14      -0.165500
     27 O            8.6850     0.9290     0.4210 os         1 F14      -0.339100
     28 C            9.4180     0.7760    -0.8070 c3         1 F14       0.147900
     29 H1           6.9700     0.4190    -1.6430 ha         1 F14       0.126500
     30 H2           4.5200     0.2450    -1.4250 ha         1 F14       0.129500
     31 H3           0.7710     1.0430    -0.1050 ha         1 F14       0.132000
     32 H4          -1.1690     0.6840    -1.3320 h1         1 F14       0.088700
     33 H5          -2.2430    -0.1960    -3.3620 hc         1 F14       0.045033
     34 H6          -0.4860    -0.1190    -3.5930 hc         1 F14       0.045033
     35 H7          -1.2750    -1.6820    -3.2900 hc         1 F14       0.045033
     36 H8          -7.9440     0.2060     0.2590 hc         1 F14       0.106200
     37 H9          -7.9860     0.8030     1.9350 hc         1 F14       0.106200
     38 H10         -7.8860     3.3980     1.5220 hc         1 F14       0.067033
     39 H11         -7.0230     3.9940     0.0960 hc         1 F14       0.067033
     40 H12         -8.4690     2.9880    -0.1020 hc         1 F14       0.067033
     41 H13         -1.8820    -1.9550    -0.2870 hn         1 F14       0.491000
     42 H14          0.1150    -2.8860    -1.8020 ha         1 F14       0.111000
     43 H15          2.3350    -3.6100    -0.9710 ha         1 F14       0.113000
     44 H16          3.7780    -2.0240     0.2910 ha         1 F14       0.127000
     45 H17          4.8180     1.0110     2.8180 ha         1 F14       0.129500
     46 H18          7.2960     1.1950     2.6050 ha         1 F14       0.126500
     47 H19         10.4930     0.9040    -0.6270 h1         1 F14       0.042367
     48 H20          9.2610    -0.2230    -1.2340 h1         1 F14       0.042367
     49 H21          9.1060     1.5280    -1.5440 h1         1 F14       0.042367
     50 O1           3.1410     0.5140     0.8590 os         1 F14      -0.248200
@<TRIPOS>BOND
     1     1     2 ar  
     2     1    26 ar  
     3     1    27 1   
     4     2     3 ar  
     5     2    29 1   
     6     3    24 ar  
     7     3    30 1   
     8     4    10 2   
     9     5     6 ar  
    10     5     7 1   
    11     5    20 ar  
    12     6    23 ar  
    13     6    31 1   
    14     7     8 1   
    15     7    19 1   
    16     7    32 1   
    17     8    33 1   
    18     8    34 1   
    19     8    35 1   
    20     9    17 2   
    21     9    18 1   
    22     9    19 1   
    23    10    11 1   
    24    10    16 1   
    25    11    12 1   
    26    11    36 1   
    27    11    37 1   
    28    12    13 1   
    29    12    15 2   
    30    13    38 1   
    31    13    39 1   
    32    13    40 1   
    33    14    15 1   
    34    14    16 1   
    35    14    18 2   
    36    16    17 1   
    37    19    41 1   
    38    20    21 ar  
    39    20    42 1   
    40    21    22 ar  
    41    21    43 1   
    42    22    23 ar  
    43    22    44 1   
    44    23    50 1   
    45    24    25 ar  
    46    24    50 1   
    47    25    26 ar  
    48    25    45 1   
    49    26    46 1   
    50    27    28 1   
    51    28    47 1   
    52    28    48 1   
    53    28    49 1   
@<TRIPOS>SUBSTRUCTURE
     1 F14         1 TEMP              0 ****  ****    0 ROOT
