@<TRIPOS>MOLECULE
F15
   46    45     1     0     0
SMALL
No Charge or Current Charge


@<TRIPOS>ATOM
      1 C1          -0.1860     0.0090    -7.8460 c          1 F15       0.717000
      2 O2          -0.4520     1.1090    -8.3070 o          1 F15      -0.744000
      3 O3          -0.6220    -1.0370    -8.3030 o          1 F15      -0.744000
      4 C4           0.6980    -0.0590    -6.5870 c3         1 F15      -0.203400
      5 C5          -0.1800     0.0120    -5.3140 c3         1 F15      -0.054400
      6 C6          -0.2370     0.0210    -2.7370 c3         1 F15      -0.075400
      7 C7           0.5830    -0.0420    -1.4290 c3         1 F15      -0.075400
      8 C8           0.6410    -0.0500    -4.0050 c3         1 F15      -0.079400
      9 C9          -0.2940     0.0300    -0.1610 c3         1 F15      -0.075400
     10 C10          0.5260    -0.0330     1.1460 c3         1 F15      -0.074400
     11 C11         -0.3520     0.0380     2.4150 c3         1 F15      -0.074400
     12 C12          0.4690    -0.0250     3.7220 c3         1 F15      -0.074400
     13 C13         -0.4090     0.0460     4.9910 c3         1 F15      -0.074400
     14 C2           0.4110    -0.0170     6.2980 c3         1 F15      -0.074400
     15 C3          -0.4660     0.0540     7.5660 c3         1 F15      -0.076400
     16 C14          0.3540    -0.0090     8.8730 c3         1 F15      -0.075400
     17 C15         -0.5210     0.0620    10.1390 c3         1 F15      -0.088100
     18 H22          1.3660     0.8090    -6.5400 hc         1 F15       0.014200
     19 H23          1.2210    -1.0220    -6.5370 hc         1 F15       0.014200
     20 H24         -0.9010    -0.8150    -5.3260 hc         1 F15       0.037700
     21 H25         -0.7620     0.9430    -5.3290 hc         1 F15       0.037700
     22 H26         -0.8180     0.9520    -2.7520 hc         1 F15       0.033700
     23 H1          -0.9570    -0.8060    -2.7500 hc         1 F15       0.033700
     24 H27          1.3030     0.7860    -1.4160 hc         1 F15       0.031700
     25 H2           1.1640    -0.9720    -1.4130 hc         1 F15       0.031700
     26 H28          1.3610     0.7770    -3.9920 hc         1 F15       0.023700
     27 H29          1.2210    -0.9810    -3.9890 hc         1 F15       0.023700
     28 H30         -1.0150    -0.7980    -0.1740 hc         1 F15       0.035200
     29 H31         -0.8750     0.9600    -0.1770 hc         1 F15       0.035200
     30 H33          1.2460     0.7940     1.1600 hc         1 F15       0.034700
     31 H5           1.1070    -0.9640     1.1620 hc         1 F15       0.034700
     32 H34         -1.0720    -0.7900     2.4020 hc         1 F15       0.035700
     33 H6          -0.9330     0.9690     2.3990 hc         1 F15       0.035700
     34 H36          1.1890     0.8030     3.7350 hc         1 F15       0.035700
     35 H37          1.0500    -0.9560     3.7380 hc         1 F15       0.035700
     36 H3          -1.1290    -0.7820     4.9770 hc         1 F15       0.036700
     37 H4          -0.9900     0.9770     4.9750 hc         1 F15       0.036700
     38 H7           1.1320     0.8110     6.3110 hc         1 F15       0.035700
     39 H8           0.9930    -0.9480     6.3130 hc         1 F15       0.035700
     40 H9          -1.1860    -0.7740     7.5530 hc         1 F15       0.036700
     41 H10         -1.0470     0.9850     7.5510 hc         1 F15       0.036700
     42 H11          1.0740     0.8190     8.8910 hc         1 F15       0.035700
     43 H12          0.9350    -0.9390     8.8940 hc         1 F15       0.035700
     44 H13          0.1040     0.0140    11.0390 hc         1 F15       0.029700
     45 H14         -1.0900     0.9990    10.1660 hc         1 F15       0.029700
     46 H15         -1.2300    -0.7750    10.1690 hc         1 F15       0.029700
@<TRIPOS>BOND
     1     1     2 1   
     2     1     3 1   
     3     1     4 1   
     4     4     5 1   
     5     4    18 1   
     6     4    19 1   
     7     5     8 1   
     8     5    20 1   
     9     5    21 1   
    10     6     7 1   
    11     6     8 1   
    12     6    22 1   
    13     6    23 1   
    14     7     9 1   
    15     7    24 1   
    16     7    25 1   
    17     8    26 1   
    18     8    27 1   
    19     9    10 1   
    20     9    28 1   
    21     9    29 1   
    22    10    11 1   
    23    10    30 1   
    24    10    31 1   
    25    11    12 1   
    26    11    32 1   
    27    11    33 1   
    28    12    13 1   
    29    12    34 1   
    30    12    35 1   
    31    13    14 1   
    32    13    36 1   
    33    13    37 1   
    34    14    15 1   
    35    14    38 1   
    36    14    39 1   
    37    15    16 1   
    38    15    40 1   
    39    15    41 1   
    40    16    17 1   
    41    16    42 1   
    42    16    43 1   
    43    17    44 1   
    44    17    45 1   
    45    17    46 1   
@<TRIPOS>SUBSTRUCTURE
     1 F15         1 TEMP              0 ****  ****    0 ROOT
