@<TRIPOS>MOLECULE
F15
   46    45     1     0     0
SMALL
abcg2


@<TRIPOS>ATOM
      1 C1          -0.1380     0.0690    -7.8130 c          1 F15       0.717000
      2 O2           0.5620     0.2090    -8.8390 o          1 F15      -0.744000
      3 O3          -1.3780    -0.0560    -7.7810 o          1 F15      -0.744000
      4 C4           0.6240     0.0420    -6.4760 c3         1 F15      -0.203400
      5 C5          -0.2310    -0.0120    -5.2200 c3         1 F15      -0.054400
      6 C6          -0.2550    -0.0390    -2.6760 c3         1 F15      -0.075400
      7 C7           0.5650    -0.0310    -1.3920 c3         1 F15      -0.075400
      8 C8           0.5960    -0.0120    -3.9390 c3         1 F15      -0.079400
      9 C9          -0.2910    -0.0380    -0.1310 c3         1 F15      -0.075400
     10 C10          0.5260    -0.0250     1.1550 c3         1 F15      -0.074400
     11 C11         -0.3350    -0.0250     2.4120 c3         1 F15      -0.074400
     12 C12          0.4780    -0.0090     3.7010 c3         1 F15      -0.074400
     13 C13         -0.3870    -0.0040     4.9560 c3         1 F15      -0.074400
     14 C2           0.4220     0.0170     6.2470 c3         1 F15      -0.074400
     15 C3          -0.4470     0.0210     7.4990 c3         1 F15      -0.076400
     16 C14          0.3550     0.0420     8.7940 c3         1 F15      -0.075400
     17 C15         -0.5300     0.0470    10.0340 c3         1 F15      -0.088100
     18 H22          1.2790     0.9200    -6.4370 hc         1 F15       0.014200
     19 H23          1.3070    -0.8160    -6.4920 hc         1 F15       0.014200
     20 H24         -0.8640    -0.9040    -5.2400 hc         1 F15       0.037700
     21 H25         -0.9170     0.8410    -5.2030 hc         1 F15       0.037700
     22 H26         -0.9310     0.8240    -2.6780 hc         1 F15       0.033700
     23 H1          -0.8990    -0.9260    -2.6900 hc         1 F15       0.033700
     24 H27          1.2150     0.8520    -1.3830 hc         1 F15       0.031700
     25 H2           1.2340    -0.8990    -1.3820 hc         1 F15       0.031700
     26 H28          1.2410     0.8750    -3.9210 hc         1 F15       0.023700
     27 H29          1.2730    -0.8750    -3.9400 hc         1 F15       0.023700
     28 H30         -0.9410    -0.9210    -0.1400 hc         1 F15       0.035200
     29 H31         -0.9610     0.8300    -0.1440 hc         1 F15       0.035200
     30 H33          1.1780     0.8560     1.1610 hc         1 F15       0.034700
     31 H5           1.1920    -0.8950     1.1710 hc         1 F15       0.034700
     32 H34         -0.9860    -0.9060     2.4060 hc         1 F15       0.035700
     33 H6          -1.0020     0.8440     2.3940 hc         1 F15       0.035700
     34 H36          1.1320     0.8700     3.7070 hc         1 F15       0.035700
     35 H37          1.1430    -0.8800     3.7220 hc         1 F15       0.035700
     36 H3          -1.0380    -0.8850     4.9500 hc         1 F15       0.036700
     37 H4          -1.0540     0.8660     4.9320 hc         1 F15       0.036700
     38 H7           1.0730     0.8980     6.2550 hc         1 F15       0.035700
     39 H8           1.0890    -0.8520     6.2720 hc         1 F15       0.035700
     40 H9          -1.0980    -0.8610     7.4910 hc         1 F15       0.036700
     41 H10         -1.1160     0.8890     7.4730 hc         1 F15       0.036700
     42 H11          1.0060     0.9220     8.8030 hc         1 F15       0.035700
     43 H12          1.0210    -0.8260     8.8210 hc         1 F15       0.035700
     44 H13          0.0590     0.0600    10.9510 hc         1 F15       0.029700
     45 H14         -1.1810     0.9230    10.0470 hc         1 F15       0.029700
     46 H15         -1.1680    -0.8380    10.0630 hc         1 F15       0.029700
@<TRIPOS>BOND
     1     1     2 1   
     2     1     3 1   
     3     1     4 1   
     4     4     5 1   
     5     4    18 1   
     6     4    19 1   
     7     5     8 1   
     8     5    20 1   
     9     5    21 1   
    10     6     7 1   
    11     6     8 1   
    12     6    22 1   
    13     6    23 1   
    14     7     9 1   
    15     7    24 1   
    16     7    25 1   
    17     8    26 1   
    18     8    27 1   
    19     9    10 1   
    20     9    28 1   
    21     9    29 1   
    22    10    11 1   
    23    10    30 1   
    24    10    31 1   
    25    11    12 1   
    26    11    32 1   
    27    11    33 1   
    28    12    13 1   
    29    12    34 1   
    30    12    35 1   
    31    13    14 1   
    32    13    36 1   
    33    13    37 1   
    34    14    15 1   
    35    14    38 1   
    36    14    39 1   
    37    15    16 1   
    38    15    40 1   
    39    15    41 1   
    40    16    17 1   
    41    16    42 1   
    42    16    43 1   
    43    17    44 1   
    44    17    45 1   
    45    17    46 1   
@<TRIPOS>SUBSTRUCTURE
     1 F15         1 TEMP              0 ****  ****    0 ROOT
