@<TRIPOS>MOLECULE
F16
   22    23     1     0     0
SMALL
abcg2


@<TRIPOS>ATOM
      1 C1          -0.3930     0.2940     0.0670 ce         1 F16      -0.139300
      2 C3          -0.9500     1.4900     0.2500 cf         1 F16      -0.180200
      3 C4          -2.4270     1.5070     0.1490 c          1 F16       0.567200
      4 N5          -2.8720     0.2440    -0.1610 ns         1 F16      -0.593300
      5 S6          -1.6750    -0.9140    -0.2420 sy         1 F16       1.142900
      6 O7          -1.5600    -1.4410    -1.5850 o          1 F16      -0.505500
      7 O8          -1.8100    -1.8510     0.8560 o          1 F16      -0.505500
      8 O9          -3.1360     2.4680     0.3060 o          1 F16      -0.464000
      9 C10          1.0100    -0.0950     0.0260 ca         1 F16       0.000200
     10 C11          1.4170    -1.4040     0.2800 ca         1 F16      -0.131000
     11 C12          2.7700    -1.7110     0.2490 ca         1 F16      -0.067000
     12 C13          3.7170    -0.7420    -0.0300 ca         1 F16      -0.125000
     13 C14          3.3110     0.5680    -0.2880 ca         1 F16       0.143100
     14 C15          1.9610     0.8870    -0.2640 ca         1 F16      -0.180000
     15 O1           4.2650     1.4720    -0.5650 oh         1 F16      -0.529100
     16 H3          -0.4100     2.4020     0.4640 ha         1 F16       0.228000
     17 H5          -3.8530    -0.0120    -0.1830 hn         1 F16       0.364500
     18 H11          0.7090    -2.1830     0.5250 ha         1 F16       0.129000
     19 H12          3.0900    -2.7240     0.4510 ha         1 F16       0.125000
     20 H13          4.7700    -0.9920    -0.0540 ha         1 F16       0.135000
     21 H15          1.6430     1.8980    -0.4930 ha         1 F16       0.115000
     22 H1           3.8810     2.3450    -0.7100 ho         1 F16       0.469000
@<TRIPOS>BOND
     1     1     2 2   
     2     1     5 1   
     3     1     9 1   
     4     2     3 1   
     5     2    16 1   
     6     3     4 1   
     7     3     8 2   
     8     4     5 1   
     9     4    17 1   
    10     5     6 2   
    11     5     7 2   
    12     9    10 ar  
    13     9    14 ar  
    14    10    11 ar  
    15    10    18 1   
    16    11    12 ar  
    17    11    19 1   
    18    12    13 ar  
    19    12    20 1   
    20    13    14 ar  
    21    13    15 1   
    22    14    21 1   
    23    15    22 1   
@<TRIPOS>SUBSTRUCTURE
     1 F16         1 TEMP              0 ****  ****    0 ROOT
