@<TRIPOS>MOLECULE
F16
   22    23     1     0     0
SMALL
No Charge or Current Charge


@<TRIPOS>ATOM
      1 C1          -0.4020     0.3020     0.0090 ce         1 F16      -0.139300
      2 C3          -1.0090     1.5280     0.1160 cf         1 F16      -0.180200
      3 C4          -2.5020     1.5120     0.0690 c          1 F16       0.567200
      4 N5          -2.9280     0.2400    -0.1210 ns         1 F16      -0.593300
      5 S6          -1.7240    -0.9000    -0.1580 sy         1 F16       1.142900
      6 O7          -1.7220    -1.4980    -1.4980 o          1 F16      -0.505500
      7 O8          -1.8580    -1.7130     1.0560 o          1 F16      -0.505500
      8 O9          -3.2370     2.4760     0.1900 o          1 F16      -0.464000
      9 C10          1.0430    -0.0960    -0.0050 ca         1 F16       0.000200
     10 C11          1.4600    -1.4340     0.1880 ca         1 F16      -0.131000
     11 C12          2.8250    -1.7680     0.1710 ca         1 F16      -0.067000
     12 C13          3.7910    -0.7710    -0.0390 ca         1 F16      -0.125000
     13 C14          3.3910     0.5590    -0.2290 ca         1 F16       0.143100
     14 C15          2.0270     0.8940    -0.2110 ca         1 F16      -0.180000
     15 O1           4.3320     1.5230    -0.4330 oh         1 F16      -0.529100
     16 H3          -0.4770     2.4680     0.2380 ha         1 F16       0.228000
     17 H5          -3.8780    -0.0700    -0.0150 hn         1 F16       0.364500
     18 H11          0.7400    -2.2290     0.3620 ha         1 F16       0.129000
     19 H12          3.1350    -2.8000     0.3210 ha         1 F16       0.125000
     20 H13          4.8470    -1.0290    -0.0530 ha         1 F16       0.135000
     21 H15          1.7290     1.9270    -0.3660 ha         1 F16       0.115000
     22 H1           3.8760     2.3840    -0.5470 ho         1 F16       0.469000
@<TRIPOS>BOND
     1     1     2 2   
     2     1     5 1   
     3     1     9 1   
     4     2     3 1   
     5     2    16 1   
     6     3     4 1   
     7     3     8 2   
     8     4     5 1   
     9     4    17 1   
    10     5     6 2   
    11     5     7 2   
    12     9    10 ar  
    13     9    14 ar  
    14    10    11 ar  
    15    10    18 1   
    16    11    12 ar  
    17    11    19 1   
    18    12    13 ar  
    19    12    20 1   
    20    13    14 ar  
    21    13    15 1   
    22    14    21 1   
    23    15    22 1   
@<TRIPOS>SUBSTRUCTURE
     1 F16         1 TEMP              0 ****  ****    0 ROOT
