@<TRIPOS>MOLECULE
F17
   77    81     1     0     0
SMALL
No Charge or Current Charge


@<TRIPOS>ATOM
      1 C1          -3.5650    -1.7790    -0.5060 ca         1 F17      -0.082000
      2 C2          -4.4070    -1.1020     0.4020 ca         1 F17      -0.041800
      3 C3          -3.8060    -0.4100     1.4810 ca         1 F17      -0.082000
      4 C4          -2.4090    -0.3920     1.6350 ca         1 F17      -0.096000
      5 C5          -1.5810    -1.0660     0.7210 ca         1 F17      -0.056300
      6 C6          -2.1690    -1.7620    -0.3480 ca         1 F17      -0.096000
      7 C20         -0.0640    -1.0230     0.8680 c3         1 F17      -0.115100
      8 C21          0.5320    -0.0740    -0.1730 c          1 F17       0.608100
      9 O24          0.7440    -0.4180    -1.3270 o          1 F17      -0.596100
     10 N25          0.7870     1.2020     0.2800 ns         1 F17      -0.486900
     11 C26          1.2350     2.3290    -0.5690 c3         1 F17       0.041700
     12 C27          2.4380     3.0520     0.0940 c          1 F17       0.594100
     13 O30          2.6420     3.0340     1.3030 o          1 F17      -0.591100
     14 N31          3.2890     3.6980    -0.7820 ns         1 F17      -0.478900
     15 C32          4.6540     4.1620    -0.4320 c3         1 F17       0.032700
     16 C33          4.9910     5.5040    -1.1470 c          1 F17       0.591100
     17 O34          4.2500     6.0530    -1.9480 o          1 F17      -0.603100
     18 C35          5.7110     3.0560    -0.7240 c3         1 F17      -0.044100
     19 N40          6.1870     6.0630    -0.8520 nt         1 F17      -0.601000
     20 C43         -1.2110     2.6240    -1.3220 ca         1 F17      -0.087300
     21 C46         -2.3710     2.6330    -0.5220 ca         1 F17      -0.111500
     22 C47         -3.5420     1.9910    -0.9600 ca         1 F17      -0.107500
     23 C48         -3.5600     1.3290    -2.1990 ca         1 F17      -0.108000
     24 C49         -2.4070     1.3160    -3.0020 ca         1 F17      -0.107500
     25 C50         -1.2380     1.9650    -2.5670 ca         1 F17      -0.111500
     26 C7           0.0660     3.3110    -0.8400 c3         1 F17      -0.044100
     27 C71          3.6210    -2.1480     0.9830 ce         1 F17      -0.138300
     28 C72          3.1110    -3.1900     0.2510 cf         1 F17      -0.175200
     29 C73          2.5690    -4.3320     1.0480 c          1 F17       0.565200
     30 N74          2.6730    -4.0420     2.3670 ns         1 F17      -0.590300
     31 S75          3.4140    -2.6000     2.7080 sy         1 F17       1.140900
     32 O67          4.7050    -2.9080     3.3330 o          1 F17      -0.507000
     33 O77          2.4230    -1.7360     3.3570 o          1 F17      -0.507000
     34 O78          2.1090    -5.3680     0.6020 o          1 F17      -0.463000
     35 C61          4.2200    -0.8370     0.5670 ca         1 F17      -0.037800
     36 C62          4.1410    -0.4430    -0.7850 ca         1 F17      -0.078000
     37 C63          4.6540     0.7940    -1.2060 ca         1 F17      -0.101500
     38 C64          5.2560     1.6670    -0.2830 ca         1 F17      -0.060300
     39 C65          5.3640     1.2730     1.0620 ca         1 F17      -0.101500
     40 C66          4.8520     0.0340     1.4850 ca         1 F17      -0.078000
     41 C8          -8.1070    -1.5230    -0.6710 c          1 F17       0.567200
     42 C9          -6.6300    -1.7360    -0.7780 ce         1 F17      -0.185200
     43 C10         -5.8800    -1.1230     0.1920 cf         1 F17      -0.130300
     44 S1          -7.0060    -0.2650     1.2590 sy         1 F17       1.140900
     45 N1          -8.3500    -0.7360     0.4070 ns         1 F17      -0.594300
     46 O2          -7.0730    -0.9040     2.5770 o          1 F17      -0.510500
     47 O3          -6.8720     1.1880     1.1040 o          1 F17      -0.510500
     48 H1          -3.9830    -2.3200    -1.3500 ha         1 F17       0.119500
     49 H3          -4.4030     0.1290     2.2100 ha         1 F17       0.119500
     50 H4          -1.9730     0.1570     2.4670 ha         1 F17       0.124500
     51 H6          -1.5430    -2.2840    -1.0680 ha         1 F17       0.124500
     52 H201         0.3450    -2.0270     0.7110 hc         1 F17       0.074200
     53 H202         0.1910    -0.6720     1.8740 hc         1 F17       0.074200
     54 H25          0.6070     1.3830     1.2600 hn         1 F17       0.325500
     55 H26          1.5900     1.9310    -1.5280 h1         1 F17       0.078700
     56 H31          3.0180     3.7130    -1.7590 hn         1 F17       0.320500
     57 H32          4.6800     4.3770     0.6440 h1         1 F17       0.083700
     58 H351         5.9230     3.0470    -1.8010 hc         1 F17       0.063700
     59 H352         6.6570     3.3150    -0.2330 hc         1 F17       0.063700
     60 H401         6.4460     6.9320    -1.2960 hn         1 F17       0.316500
     61 H402         6.8080     5.6230    -0.1890 hn         1 F17       0.316500
     62 H46         -2.3670     3.1330     0.4440 ha         1 F17       0.109000
     63 H47         -4.4330     2.0010    -0.3370 ha         1 F17       0.118500
     64 H48         -4.4640     0.8250    -2.5330 ha         1 F17       0.127000
     65 H49         -2.4190     0.8030    -3.9610 ha         1 F17       0.118500
     66 H50         -0.3500     1.9460    -3.1950 ha         1 F17       0.109000
     67 H7C1        -0.1380     3.8740     0.0800 hc         1 F17       0.070700
     68 H7C2         0.3870     4.0550    -1.5800 hc         1 F17       0.070700
     69 H72          3.0870    -3.2270    -0.8350 ha         1 F17       0.231000
     70 H74          2.5330    -4.6990     3.1150 hn         1 F17       0.363500
     71 H62          3.6580    -1.0850    -1.5170 ha         1 F17       0.124000
     72 H63          4.5550     1.0850    -2.2490 ha         1 F17       0.116000
     73 H65          5.8200     1.9410     1.7890 ha         1 F17       0.116000
     74 H66          4.9450    -0.2260     2.5350 ha         1 F17       0.124000
     75 H9          -6.2320    -2.3420    -1.5870 ha         1 F17       0.230000
     76 HA          -9.2570    -0.4410     0.7260 hn         1 F17       0.363500
     77 O1          -8.9640    -1.9700    -1.4120 o          1 F17      -0.464000
@<TRIPOS>BOND
     1     1     2 ar  
     2     1     6 ar  
     3     1    48 1   
     4     2     3 ar  
     5     2    43 1   
     6     3     4 ar  
     7     3    49 1   
     8     4     5 ar  
     9     4    50 1   
    10     5     6 ar  
    11     5     7 1   
    12     6    51 1   
    13     7     8 1   
    14     7    52 1   
    15     7    53 1   
    16     8     9 2   
    17     8    10 1   
    18    10    11 1   
    19    10    54 1   
    20    11    12 1   
    21    11    26 1   
    22    11    55 1   
    23    12    13 2   
    24    12    14 1   
    25    14    15 1   
    26    14    56 1   
    27    15    16 1   
    28    15    18 1   
    29    15    57 1   
    30    16    17 2   
    31    16    19 1   
    32    18    38 1   
    33    18    58 1   
    34    18    59 1   
    35    19    60 1   
    36    19    61 1   
    37    20    21 ar  
    38    20    25 ar  
    39    20    26 1   
    40    21    22 ar  
    41    21    62 1   
    42    22    23 ar  
    43    22    63 1   
    44    23    24 ar  
    45    23    64 1   
    46    24    25 ar  
    47    24    65 1   
    48    25    66 1   
    49    26    67 1   
    50    26    68 1   
    51    27    28 2   
    52    27    31 1   
    53    27    35 1   
    54    28    29 1   
    55    28    69 1   
    56    29    30 1   
    57    29    34 2   
    58    30    31 1   
    59    30    70 1   
    60    31    32 2   
    61    31    33 2   
    62    35    36 ar  
    63    35    40 ar  
    64    36    37 ar  
    65    36    71 1   
    66    37    38 ar  
    67    37    72 1   
    68    38    39 ar  
    69    39    40 ar  
    70    39    73 1   
    71    40    74 1   
    72    41    42 1   
    73    41    45 1   
    74    41    77 2   
    75    42    43 2   
    76    42    75 1   
    77    43    44 1   
    78    44    45 1   
    79    44    46 2   
    80    44    47 2   
    81    45    76 1   
@<TRIPOS>SUBSTRUCTURE
     1 F17         1 TEMP              0 ****  ****    0 ROOT
