@<TRIPOS>MOLECULE
F17
   77    81     1     0     0
SMALL
abcg2


@<TRIPOS>ATOM
      1 C1          -4.1080    -1.3830     1.7500 ca         1 F17      -0.082000
      2 C2          -4.8390    -0.7020     0.7720 ca         1 F17      -0.041800
      3 C3          -4.5400     0.6410     0.5290 ca         1 F17      -0.082000
      4 C4          -3.5340     1.2730     1.2360 ca         1 F17      -0.096000
      5 C5          -2.7990     0.5940     2.2020 ca         1 F17      -0.056300
      6 C6          -3.1000    -0.7440     2.4480 ca         1 F17      -0.096000
      7 C20         -1.6630     1.2790     2.9130 c3         1 F17      -0.115100
      8 C21         -0.4950     1.3680     1.9460 c          1 F17       0.608100
      9 O24          0.2450     0.4230     1.7320 o          1 F17      -0.596100
     10 N25         -0.3990     2.5350     1.2860 ns         1 F17      -0.486900
     11 C26          0.5100     2.7240     0.1920 c3         1 F17       0.041700
     12 C27          1.9150     3.0470     0.6900 c          1 F17       0.594100
     13 O30          2.1160     3.6310     1.7400 o          1 F17      -0.591100
     14 N31          2.9010     2.6680    -0.1400 ns         1 F17      -0.478900
     15 C32          4.2480     3.1280     0.0490 c3         1 F17       0.032700
     16 C33          4.3280     4.6470    -0.1490 c          1 F17       0.591100
     17 O34          3.5320     5.2400    -0.8560 o          1 F17      -0.603100
     18 C35          5.1860     2.4290    -0.9460 c3         1 F17      -0.044100
     19 N40          5.3570     5.2290     0.4760 nt         1 F17      -0.601000
     20 C43         -1.3770     3.5960    -1.2240 ca         1 F17      -0.087300
     21 C46         -2.4570     4.3520    -0.7790 ca         1 F17      -0.111500
     22 C47         -3.7480     4.0770    -1.2150 ca         1 F17      -0.107500
     23 C48         -3.9750     3.0350    -2.1020 ca         1 F17      -0.108000
     24 C49         -2.9020     2.2770    -2.5570 ca         1 F17      -0.107500
     25 C50         -1.6160     2.5570    -2.1230 ca         1 F17      -0.111500
     26 C7           0.0140     3.8620    -0.7150 c3         1 F17      -0.044100
     27 C71          5.0850    -3.2860    -0.2230 ce         1 F17      -0.138300
     28 C72          4.1880    -4.1720    -0.6510 cf         1 F17      -0.175200
     29 C73          4.5330    -5.5830    -0.3690 c          1 F17       0.565200
     30 N74          5.7670    -5.6360     0.2360 ns         1 F17      -0.590300
     31 S75          6.4390    -4.1450     0.5680 sy         1 F17       1.140900
     32 O67          7.6580    -3.9450    -0.1850 o          1 F17      -0.507000
     33 O77          6.4700    -3.9180     2.0000 o          1 F17      -0.507000
     34 O78          3.8530    -6.5450    -0.6280 o          1 F17      -0.463000
     35 C61          5.1390    -1.8420    -0.3930 ca         1 F17      -0.037800
     36 C62          4.5140    -1.2650    -1.4990 ca         1 F17      -0.078000
     37 C63          4.5360     0.1070    -1.6790 ca         1 F17      -0.101500
     38 C64          5.1810     0.9380    -0.7680 ca         1 F17      -0.060300
     39 C65          5.8120     0.3570     0.3300 ca         1 F17      -0.101500
     40 C66          5.7970    -1.0120     0.5200 ca         1 F17      -0.078000
     41 C8          -7.3230    -3.0480    -0.8750 c          1 F17       0.567200
     42 C9          -6.1420    -2.7120    -0.0510 ce         1 F17      -0.185200
     43 C10         -5.8720    -1.4090     0.0320 cf         1 F17      -0.130300
     44 S1          -7.0710    -0.4960    -0.9330 sy         1 F17       1.140900
     45 N1          -7.8890    -1.8880    -1.3490 ns         1 F17      -0.594300
     46 O2          -7.8840     0.3400    -0.0750 o          1 F17      -0.510500
     47 O3          -6.4650     0.1050    -2.1060 o          1 F17      -0.510500
     48 H1          -4.3300    -2.4170     1.9760 ha         1 F17       0.119500
     49 H3          -5.0580     1.2150    -0.2270 ha         1 F17       0.119500
     50 H4          -3.3190     2.3110     1.0110 ha         1 F17       0.124500
     51 H6          -2.5460    -1.2930     3.1980 ha         1 F17       0.124500
     52 H201        -1.3550     0.7070     3.7880 hc         1 F17       0.074200
     53 H202        -1.9710     2.2700     3.2530 hc         1 F17       0.074200
     54 H25         -0.9960     3.2990     1.5560 hn         1 F17       0.325500
     55 H26          0.5400     1.8010    -0.3950 h1         1 F17       0.078700
     56 H31          2.6510     2.2760    -1.0340 hn         1 F17       0.320500
     57 H32          4.5700     2.8820     1.0650 h1         1 F17       0.083700
     58 H351         4.8940     2.6910    -1.9660 hc         1 F17       0.063700
     59 H352         6.1970     2.8140    -0.7980 hc         1 F17       0.063700
     60 H401         5.5350     6.2150     0.3660 hn         1 F17       0.316500
     61 H402         5.9720     4.7170     1.0860 hn         1 F17       0.316500
     62 H46         -2.2890     5.1660    -0.0820 ha         1 F17       0.109000
     63 H47         -4.5760     4.6760    -0.8560 ha         1 F17       0.118500
     64 H48         -4.9800     2.8090    -2.4340 ha         1 F17       0.127000
     65 H49         -3.0670     1.4640    -3.2520 ha         1 F17       0.118500
     66 H50         -0.7880     1.9590    -2.4870 ha         1 F17       0.109000
     67 H7C1         0.0380     4.8040    -0.1620 hc         1 F17       0.070700
     68 H7C2         0.7150     3.9700    -1.5450 hc         1 F17       0.070700
     69 H72          3.2670    -3.9260    -1.1610 ha         1 F17       0.231000
     70 H74          6.1560    -6.4840     0.6320 hn         1 F17       0.363500
     71 H62          4.0270    -1.8890    -2.2380 ha         1 F17       0.124000
     72 H63          4.0590     0.5310    -2.5540 ha         1 F17       0.116000
     73 H65          6.3280     0.9810     1.0500 ha         1 F17       0.116000
     74 H66          6.2830    -1.4180     1.3970 ha         1 F17       0.124000
     75 H9          -5.5750    -3.4980     0.4270 ha         1 F17       0.230000
     76 HA          -8.6620    -1.8680    -2.0040 hn         1 F17       0.363500
     77 O1          -7.7370    -4.1570    -1.1020 o          1 F17      -0.464000
@<TRIPOS>BOND
     1     1     2 ar  
     2     1     6 ar  
     3     1    48 1   
     4     2     3 ar  
     5     2    43 1   
     6     3     4 ar  
     7     3    49 1   
     8     4     5 ar  
     9     4    50 1   
    10     5     6 ar  
    11     5     7 1   
    12     6    51 1   
    13     7     8 1   
    14     7    52 1   
    15     7    53 1   
    16     8     9 2   
    17     8    10 1   
    18    10    11 1   
    19    10    54 1   
    20    11    12 1   
    21    11    26 1   
    22    11    55 1   
    23    12    13 2   
    24    12    14 1   
    25    14    15 1   
    26    14    56 1   
    27    15    16 1   
    28    15    18 1   
    29    15    57 1   
    30    16    17 2   
    31    16    19 1   
    32    18    38 1   
    33    18    58 1   
    34    18    59 1   
    35    19    60 1   
    36    19    61 1   
    37    20    21 ar  
    38    20    25 ar  
    39    20    26 1   
    40    21    22 ar  
    41    21    62 1   
    42    22    23 ar  
    43    22    63 1   
    44    23    24 ar  
    45    23    64 1   
    46    24    25 ar  
    47    24    65 1   
    48    25    66 1   
    49    26    67 1   
    50    26    68 1   
    51    27    28 2   
    52    27    31 1   
    53    27    35 1   
    54    28    29 1   
    55    28    69 1   
    56    29    30 1   
    57    29    34 2   
    58    30    31 1   
    59    30    70 1   
    60    31    32 2   
    61    31    33 2   
    62    35    36 ar  
    63    35    40 ar  
    64    36    37 ar  
    65    36    71 1   
    66    37    38 ar  
    67    37    72 1   
    68    38    39 ar  
    69    39    40 ar  
    70    39    73 1   
    71    40    74 1   
    72    41    42 1   
    73    41    45 1   
    74    41    77 2   
    75    42    43 2   
    76    42    75 1   
    77    43    44 1   
    78    44    45 1   
    79    44    46 2   
    80    44    47 2   
    81    45    76 1   
@<TRIPOS>SUBSTRUCTURE
     1 F17         1 TEMP              0 ****  ****    0 ROOT
