@<TRIPOS>MOLECULE
F1A
   26    26     1     0     0
SMALL
No Charge or Current Charge


@<TRIPOS>ATOM
      1 N            2.2910     0.3690    -1.5020 n8         1 F1A      -1.003100
      2 S            1.8910    -0.0050     0.0350 sy         1 F1A       1.118600
      3 O1           2.4690    -1.3340     0.2070 o          1 F1A      -0.550000
      4 O2           2.4030     1.1340     0.7920 o          1 F1A      -0.550000
      5 C1           0.0580    -0.0170    -0.0010 ca         1 F1A      -0.262500
      6 C2          -0.6640     1.2180    -0.0060 ca         1 F1A       0.034700
      7 C3          -2.0730     1.2090    -0.0070 ca         1 F1A      -0.147500
      8 C4          -2.7930     0.0120    -0.0170 ca         1 F1A      -0.010300
      9 C5          -2.0970    -1.2000    -0.0410 ca         1 F1A      -0.147500
     10 C6          -0.6880    -1.2390    -0.0390 ca         1 F1A       0.034700
     11 C7           0.0020     2.5950    -0.0240 c3         1 F1A      -0.067300
     12 C9          -0.0570    -2.6300    -0.0860 c3         1 F1A      -0.067300
     13 C8          -4.3140     0.0270    -0.0230 c3         1 F1A      -0.056800
     14 HN1          2.8510    -0.4450    -1.7460 hn         1 F1A       0.470500
     15 HN2          3.0000     1.0790    -1.3390 hn         1 F1A       0.470500
     16 H3          -2.6190     2.1500    -0.0040 ha         1 F1A       0.113500
     17 H71C         0.7810     2.6650    -0.7910 hc         1 F1A       0.060200
     18 H72C        -0.7180     3.3910    -0.2490 hc         1 F1A       0.060200
     19 H73C         0.4430     2.8370     0.9500 hc         1 F1A       0.060200
     20 H5          -2.6640    -2.1270    -0.0650 ha         1 F1A       0.113500
     21 H81C        -4.7000     0.0400    -1.0490 hc         1 F1A       0.048700
     22 H82C        -4.7250    -0.8570     0.4790 hc         1 F1A       0.048700
     23 H83C        -4.7070     0.9100     0.4940 hc         1 F1A       0.048700
     24 H91C         0.4890    -2.8530     0.8390 hc         1 F1A       0.060200
     25 H92C        -0.8100    -3.4190    -0.2000 hc         1 F1A       0.060200
     26 H93C         0.6260    -2.7330    -0.9370 hc         1 F1A       0.060200
@<TRIPOS>BOND
     1     1     2 1   
     2     1    14 1   
     3     1    15 1   
     4     2     3 2   
     5     2     4 2   
     6     2     5 1   
     7     5     6 ar  
     8     5    10 ar  
     9     6     7 ar  
    10     6    11 1   
    11     7     8 ar  
    12     7    16 1   
    13     8     9 ar  
    14     8    13 1   
    15     9    10 ar  
    16     9    20 1   
    17    10    12 1   
    18    11    17 1   
    19    11    18 1   
    20    11    19 1   
    21    12    24 1   
    22    12    25 1   
    23    12    26 1   
    24    13    21 1   
    25    13    22 1   
    26    13    23 1   
@<TRIPOS>SUBSTRUCTURE
     1 F1A         1 TEMP              0 ****  ****    0 ROOT
