@<TRIPOS>MOLECULE
F1A
   26    26     1     0     0
SMALL
bcc


@<TRIPOS>ATOM
      1 N            2.2250     0.5720    -1.4110 n8         1 F1A      -0.892700
      2 S            1.8390     0.0270     0.1040 sy         1 F1A       1.260200
      3 O1           2.3690    -1.3060     0.3530 o          1 F1A      -0.620800
      4 O2           2.2590     1.0690     1.0300 o          1 F1A      -0.620800
      5 C1           0.0590    -0.0270     0.0100 ca         1 F1A      -0.262500
      6 C2          -0.6280     1.2040    -0.0380 ca         1 F1A       0.034700
      7 C3          -2.0150     1.1760    -0.0600 ca         1 F1A      -0.165500
      8 C4          -2.7350    -0.0120    -0.0400 ca         1 F1A      -0.010300
      9 C5          -2.0260    -1.2020    -0.0160 ca         1 F1A      -0.165500
     10 C6          -0.6330    -1.2510     0.0030 ca         1 F1A       0.034700
     11 C7           0.0230     2.5600    -0.0660 c3         1 F1A      -0.067300
     12 C9          -0.0220    -2.6280     0.0020 c3         1 F1A      -0.067300
     13 C8          -4.2330     0.0020    -0.0710 c3         1 F1A      -0.056800
     14 HN1          2.1180    -0.1460    -2.1210 hn         1 F1A       0.415300
     15 HN2          3.1670     0.9510    -1.4370 hn         1 F1A       0.415300
     16 H3          -2.5510     2.1170    -0.0970 ha         1 F1A       0.131500
     17 H71C         0.8400     2.6190    -0.7830 hc         1 F1A       0.060200
     18 H72C        -0.7170     3.3080    -0.3410 hc         1 F1A       0.060200
     19 H73C         0.4220     2.8330     0.9090 hc         1 F1A       0.060200
     20 H5          -2.5740    -2.1370    -0.0150 ha         1 F1A       0.131500
     21 H81C        -4.5960     0.2670    -1.0650 hc         1 F1A       0.048700
     22 H82C        -4.6490    -0.9710     0.1860 hc         1 F1A       0.048700
     23 H83C        -4.6350     0.7390     0.6240 hc         1 F1A       0.048700
     24 H91C         0.4860    -2.8530     0.9380 hc         1 F1A       0.060200
     25 H92C        -0.8120    -3.3640    -0.1280 hc         1 F1A       0.060200
     26 H93C         0.6960    -2.7700    -0.8020 hc         1 F1A       0.060200
@<TRIPOS>BOND
     1     1     2 1   
     2     1    14 1   
     3     1    15 1   
     4     2     3 2   
     5     2     4 2   
     6     2     5 1   
     7     5     6 ar  
     8     5    10 ar  
     9     6     7 ar  
    10     6    11 1   
    11     7     8 ar  
    12     7    16 1   
    13     8     9 ar  
    14     8    13 1   
    15     9    10 ar  
    16     9    20 1   
    17    10    12 1   
    18    11    17 1   
    19    11    18 1   
    20    11    19 1   
    21    12    24 1   
    22    12    25 1   
    23    12    26 1   
    24    13    21 1   
    25    13    22 1   
    26    13    23 1   
@<TRIPOS>SUBSTRUCTURE
     1 F1A         1 TEMP              0 ****  ****    0 ROOT
