@<TRIPOS>MOLECULE
F1B
   53    56     1     0     0
SMALL
No Charge or Current Charge


@<TRIPOS>ATOM
      1 C4          -0.2410     2.5550    -0.0350 c          1 F1B       0.581200
      2 C5          -2.4390     2.0780     0.5170 ca         1 F1B       0.066600
      3 C6          -2.7950    -0.1790    -0.2660 ca         1 F1B      -0.027000
      4 C7           0.3280    -1.2740    -0.6840 ca         1 F1B      -0.105800
      5 C13          0.8690    -2.1250    -1.6740 ca         1 F1B      -0.085500
      6 C15          2.8980     0.1300    -0.7270 c6         1 F1B       0.229500
      7 C20          4.0520     0.8960    -1.4060 c6         1 F1B      -0.092400
      8 C21          3.0700     0.1800     0.8090 c6         1 F1B      -0.092400
      9 C22         -6.5330    -1.2030     0.3650 c3         1 F1B      -0.195100
     10 C24          0.2540    -4.0870    -0.3720 ca         1 F1B      -0.089000
     11 C26          4.4590    -0.3620     1.2140 c6         1 F1B       0.166800
     12 C12         -4.1520    -0.0930     0.1490 ca         1 F1B      -0.210600
     13 C16         -4.6220     1.1090     0.7560 ca         1 F1B      -0.055000
     14 C11         -3.7630     2.2140     0.9300 ca         1 F1B      -0.163000
     15 N9          -1.4110     3.0090     0.5000 ns         1 F1B      -0.389100
     16 O10          0.7880     3.2010    -0.1750 o          1 F1B      -0.599000
     17 C2          -1.9420     0.9140    -0.0370 ca         1 F1B      -0.056800
     18 C1          -0.5280     1.1350    -0.3820 cc         1 F1B      -0.330400
     19 C3           0.3660     0.2030    -0.8470 cf         1 F1B       0.335800
     20 C18          0.8320    -3.5210    -1.5190 ca         1 F1B      -0.109000
     21 C19         -0.2870    -3.2540     0.6200 ca         1 F1B      -0.109000
     22 C14         -0.2510    -1.8570     0.4650 ca         1 F1B      -0.085500
     23 N8           1.6150     0.7460    -1.1150 nu         1 F1B      -0.789200
     24 C25          5.4170     0.3350    -0.9470 c6         1 F1B       0.166800
     25 N27          5.5520     0.3850     0.5350 n3         1 F1B      -0.714600
     26 H1          -2.4260    -1.0690    -0.7680 ha         1 F1B       0.138000
     27 H2           1.3080    -1.6990    -2.5740 ha         1 F1B       0.122500
     28 H3           2.9620    -0.9180    -1.0510 h1         1 F1B       0.067700
     29 H4           3.9680     0.8140    -2.4970 hc         1 F1B       0.058700
     30 H5           3.9980     1.9650    -1.1610 hc         1 F1B       0.058700
     31 H6           2.9600     1.2110     1.1700 hc         1 F1B       0.058700
     32 H7           2.2890    -0.4140     1.3010 hc         1 F1B       0.058700
     33 H8          -6.5730    -0.9510     1.4300 hc         1 F1B       0.058367
     34 H9          -7.0050    -0.3340    -0.1080 hc         1 F1B       0.058367
     35 H10         -7.0860    -2.1240     0.1500 hc         1 F1B       0.058367
     36 H11          0.2250    -5.1680    -0.2510 ha         1 F1B       0.118000
     37 H12          4.5630    -0.2800     2.3060 h1         1 F1B       0.034950
     38 H13          4.5150    -1.4320     0.9630 h1         1 F1B       0.034950
     39 H14          7.0780    -1.0940     0.7350 h1         1 F1B       0.032033
     40 H15          7.6750     0.5700     0.5230 h1         1 F1B       0.032033
     41 H16          6.9840     0.0680     2.0800 h1         1 F1B       0.032033
     42 H17         -5.6550     1.2090     1.0790 ha         1 F1B       0.110000
     43 H18         -4.1250     3.1440     1.3620 ha         1 F1B       0.118000
     44 H19         -1.5220     3.9620     0.8200 hn         1 F1B       0.335500
     45 H21          1.2500    -4.1650    -2.2910 ha         1 F1B       0.119000
     46 H22         -0.7320    -3.6890     1.5120 ha         1 F1B       0.119000
     47 H23         -0.6570    -1.2250     1.2520 ha         1 F1B       0.122500
     48 H24          5.5200    -0.7010    -1.3040 h1         1 F1B       0.034950
     49 H25          6.2170     0.9220    -1.4220 h1         1 F1B       0.034950
     50 H20          1.5860     1.7670    -1.0320 hn         1 F1B       0.531000
     51 C17         -5.0700    -1.2790    -0.0770 c          1 F1B       0.588700
     52 C28          6.8920    -0.0420     0.9910 c3         1 F1B       0.152100
     53 O23         -4.6550    -2.3010    -0.6110 o          1 F1B      -0.539100
@<TRIPOS>BOND
     1     1    15 1   
     2     1    16 2   
     3     1    18 1   
     4     2    14 ar  
     5     2    15 1   
     6     2    17 ar  
     7     3    12 ar  
     8     3    17 ar  
     9     3    26 1   
    10     4     5 ar  
    11     4    19 1   
    12     4    22 ar  
    13     5    20 ar  
    14     5    27 1   
    15     6     7 1   
    16     6     8 1   
    17     6    23 1   
    18     6    28 1   
    19     7    24 1   
    20     7    29 1   
    21     7    30 1   
    22     8    11 1   
    23     8    31 1   
    24     8    32 1   
    25     9    33 1   
    26     9    34 1   
    27     9    35 1   
    28     9    51 1   
    29    10    20 ar  
    30    10    21 ar  
    31    10    36 1   
    32    11    25 1   
    33    11    37 1   
    34    11    38 1   
    35    12    13 ar  
    36    12    51 1   
    37    13    14 ar  
    38    13    42 1   
    39    14    43 1   
    40    15    44 1   
    41    17    18 1   
    42    18    19 2   
    43    19    23 1   
    44    20    45 1   
    45    21    22 ar  
    46    21    46 1   
    47    22    47 1   
    48    23    50 1   
    49    24    25 1   
    50    24    48 1   
    51    24    49 1   
    52    25    52 1   
    53    39    52 1   
    54    40    52 1   
    55    41    52 1   
    56    51    53 2   
@<TRIPOS>SUBSTRUCTURE
     1 F1B         1 TEMP              0 ****  ****    0 ROOT
