@<TRIPOS>MOLECULE
F1B
   53    56     1     0     0
SMALL
bcc


@<TRIPOS>ATOM
      1 C4          -0.5590     2.7400    -0.0190 c          1 F1B       0.723700
      2 C5          -2.7500     2.1390     0.0130 ca         1 F1B       0.066600
      3 C6          -2.7390    -0.2600    -0.1280 ca         1 F1B      -0.045000
      4 C7           0.3440    -0.9830    -0.2200 ca         1 F1B      -0.105800
      5 C13          0.2280    -1.6200    -1.4510 ca         1 F1B      -0.103500
      6 C15          2.9780     0.2500    -0.1400 c6         1 F1B       0.229500
      7 C20          4.0060     0.9160    -1.0470 c6         1 F1B      -0.092400
      8 C21          3.5310     0.1480     1.2790 c6         1 F1B      -0.092400
      9 C22         -6.3720    -1.5110    -0.0440 c3         1 F1B      -0.195100
     10 C24         -0.0460    -3.7290    -0.3280 ca         1 F1B      -0.107000
     11 C26          4.8830    -0.5490     1.2700 c6         1 F1B       0.166800
     12 C12         -4.1390    -0.2410    -0.0740 ca         1 F1B      -0.210600
     13 C16         -4.8190     0.9770     0.0210 ca         1 F1B      -0.073000
     14 C11         -4.1310     2.1800     0.0650 ca         1 F1B      -0.181000
     15 N9          -1.8600     3.1830     0.0460 ns         1 F1B      -0.456100
     16 O10          0.4280     3.4760     0.0000 o          1 F1B      -0.674500
     17 C2          -2.0290     0.9270    -0.0830 ca         1 F1B      -0.056800
     18 C1          -0.6240     1.2920    -0.1030 cc         1 F1B      -0.330400
     19 C3           0.5020     0.4910    -0.1620 cf         1 F1B       0.335800
     20 C18          0.0320    -2.9920    -1.5030 ca         1 F1B      -0.127000
     21 C19          0.0760    -3.0930     0.9000 ca         1 F1B      -0.127000
     22 C14          0.2720    -1.7200     0.9560 ca         1 F1B      -0.103500
     23 N8           1.7310     0.9900    -0.1750 nu         1 F1B      -0.734000
     24 C25          5.3390     0.1890    -0.9580 c6         1 F1B       0.166800
     25 N27          5.8230     0.1410     0.4090 n3         1 F1B      -0.714600
     26 H1          -2.2300    -1.2100    -0.2070 ha         1 F1B       0.156000
     27 H2           0.2810    -1.0420    -2.3660 ha         1 F1B       0.140500
     28 H3           2.7910    -0.7590    -0.5140 h1         1 F1B       0.067700
     29 H4           3.6560     0.9150    -2.0810 hc         1 F1B       0.058700
     30 H5           4.1420     1.9600    -0.7450 hc         1 F1B       0.058700
     31 H6           3.6370     1.1510     1.7020 hc         1 F1B       0.058700
     32 H7           2.8380    -0.4050     1.9160 hc         1 F1B       0.058700
     33 H8          -6.7100    -1.0270     0.8740 hc         1 F1B       0.058367
     34 H9          -6.7960    -0.9490    -0.8770 hc         1 F1B       0.058367
     35 H10         -6.7640    -2.5250    -0.0700 hc         1 F1B       0.058367
     36 H11         -0.2020    -4.7990    -0.3700 ha         1 F1B       0.136000
     37 H12          5.2850    -0.5750     2.2860 h1         1 F1B       0.034950
     38 H13          4.7470    -1.6020     0.9590 h1         1 F1B       0.034950
     39 H14          7.1650    -1.5000     0.1440 h1         1 F1B       0.032033
     40 H15          7.8400     0.1110    -0.1360 h1         1 F1B       0.032033
     41 H16          7.5060    -0.4250     1.5090 h1         1 F1B       0.032033
     42 H17         -5.8990     1.0040     0.0620 ha         1 F1B       0.128000
     43 H18         -4.6630     3.1200     0.1400 ha         1 F1B       0.136000
     44 H19         -2.1150     4.1570     0.1130 hn         1 F1B       0.335500
     45 H21         -0.0640    -3.4860    -2.4610 ha         1 F1B       0.137000
     46 H22          0.0130    -3.6650     1.8160 ha         1 F1B       0.137000
     47 H23          0.3510    -1.2220     1.9150 ha         1 F1B       0.140500
     48 H24          5.2270    -0.8250    -1.3830 h1         1 F1B       0.034950
     49 H25          6.0750     0.7080    -1.5750 h1         1 F1B       0.034950
     50 H20          1.7950     2.0020    -0.1130 hn         1 F1B       0.475800
     51 C17         -4.8660    -1.5330    -0.1210 c          1 F1B       0.588700
     52 C28          7.1390    -0.4520     0.4810 c3         1 F1B       0.152100
     53 O23         -4.2640    -2.5850    -0.2190 o          1 F1B      -0.539100
@<TRIPOS>BOND
     1     1    15 1   
     2     1    16 2   
     3     1    18 1   
     4     2    14 ar  
     5     2    15 1   
     6     2    17 ar  
     7     3    12 ar  
     8     3    17 ar  
     9     3    26 1   
    10     4     5 ar  
    11     4    19 1   
    12     4    22 ar  
    13     5    20 ar  
    14     5    27 1   
    15     6     7 1   
    16     6     8 1   
    17     6    23 1   
    18     6    28 1   
    19     7    24 1   
    20     7    29 1   
    21     7    30 1   
    22     8    11 1   
    23     8    31 1   
    24     8    32 1   
    25     9    33 1   
    26     9    34 1   
    27     9    35 1   
    28     9    51 1   
    29    10    20 ar  
    30    10    21 ar  
    31    10    36 1   
    32    11    25 1   
    33    11    37 1   
    34    11    38 1   
    35    12    13 ar  
    36    12    51 1   
    37    13    14 ar  
    38    13    42 1   
    39    14    43 1   
    40    15    44 1   
    41    17    18 1   
    42    18    19 2   
    43    19    23 1   
    44    20    45 1   
    45    21    22 ar  
    46    21    46 1   
    47    22    47 1   
    48    23    50 1   
    49    24    25 1   
    50    24    48 1   
    51    24    49 1   
    52    25    52 1   
    53    39    52 1   
    54    40    52 1   
    55    41    52 1   
    56    51    53 2   
@<TRIPOS>SUBSTRUCTURE
     1 F1B         1 TEMP              0 ****  ****    0 ROOT
