@<TRIPOS>MOLECULE
F1C
   48    50     1     0     0
SMALL
bcc


@<TRIPOS>ATOM
      1 N1          -6.0150    -0.2500    -0.1490 ns         1 F1C      -0.468600
      2 C2           1.1510     1.5530    -0.2390 ca         1 F1C      -0.076000
      3 O2          -7.6550    -1.6410     0.5950 o          1 F1C      -0.598600
      4 C4           2.4130    -0.5880    -0.4820 cp         1 F1C       0.028000
      5 C5           2.3940    -1.7780    -1.2100 ca         1 F1C      -0.152500
      6 C7           4.7980    -1.9730    -1.0020 ca         1 F1C      -0.164000
      7 C6           3.5780    -2.4520    -1.4600 ca         1 F1C      -0.115000
      8 C8           4.8300    -0.7820    -0.2760 ca         1 F1C       0.061600
      9 C1          -0.0180     2.2650    -0.0000 ca         1 F1C      -0.145600
     10 C10          8.2830     0.3550     0.7300 c3         1 F1C      -0.182100
     11 C11          3.6350    -0.1060    -0.0240 ca         1 F1C      -0.175500
     12 C12         -0.0150    -0.5190     0.0780 ca         1 F1C      -0.116000
     13 C13         -1.1990     0.1720     0.3240 cp         1 F1C      -0.092000
     14 C14         -2.4430    -0.5650     0.6340 cp         1 F1C       0.028000
     15 C15         -2.4210    -1.7120     1.4270 ca         1 F1C      -0.152500
     16 C16         -3.6030    -2.3790     1.7040 ca         1 F1C      -0.115000
     17 C17         -4.8220    -1.9370     1.2090 ca         1 F1C      -0.164000
     18 C18         -4.8560    -0.7900     0.4140 ca         1 F1C       0.061600
     19 C19         -7.3030    -0.6710    -0.0530 c          1 F1C       0.674100
     20 C20         -8.2820     0.1540    -0.8500 c3         1 F1C      -0.182100
     21 C21         -3.6630    -0.1190     0.1380 ca         1 F1C      -0.175500
     22 C22         -1.1860     1.5650     0.2790 ca         1 F1C      -0.076000
     23 C3           1.1680     0.1600    -0.2070 cp         1 F1C      -0.092000
     24 C9           7.2910    -0.5340     0.0250 c          1 F1C       0.674100
     25 N            5.9910    -0.2110     0.2530 ns         1 F1C      -0.468600
     26 O            1.0740     4.3400    -0.2720 o          1 F1C      -0.822300
     27 O1           7.6470    -1.4490    -0.6960 o          1 F1C      -0.598600
     28 O3          -1.1150     4.3500     0.1490 o          1 F1C      -0.822300
     29 H13         -5.8620     0.5700    -0.7160 hn         1 F1C       0.318500
     30 H            2.0540     2.0990    -0.4770 ha         1 F1C       0.150000
     31 H1           1.4610    -2.1670    -1.5990 ha         1 F1C       0.134000
     32 H3           5.7010    -2.5240    -1.2090 ha         1 F1C       0.154000
     33 H2           3.5580    -3.3710    -2.0300 ha         1 F1C       0.120000
     34 H5           7.8290     1.0650     1.4190 hc         1 F1C       0.059200
     35 H6           8.9910    -0.2610     1.2830 hc         1 F1C       0.059200
     36 H7           8.8510     0.9160    -0.0130 hc         1 F1C       0.059200
     37 H8           3.6600     0.8100     0.5560 ha         1 F1C       0.140000
     38 H9          -0.0140    -1.6020     0.1080 ha         1 F1C       0.113000
     39 H10         -1.4890    -2.0700     1.8450 ha         1 F1C       0.134000
     40 H11         -3.5830    -3.2640     2.3270 ha         1 F1C       0.120000
     41 H12         -5.7220    -2.4800     1.4420 ha         1 F1C       0.154000
     42 H14         -7.8950     1.1260    -1.1480 hc         1 F1C       0.059200
     43 H15         -8.5550    -0.3930    -1.7540 hc         1 F1C       0.059200
     44 H16         -9.1910     0.3020    -0.2700 hc         1 F1C       0.059200
     45 H17         -3.6880     0.7610    -0.4960 ha         1 F1C       0.140000
     46 H18         -2.0920     2.1200     0.4830 ha         1 F1C       0.150000
     47 H4           5.8330     0.5900     0.8460 hn         1 F1C       0.318500
     48 C           -0.0200     3.7910    -0.0450 c          1 F1C       0.926200
@<TRIPOS>BOND
     1     1    18 1   
     2     1    19 1   
     3     1    29 1   
     4     2     9 ar  
     5     2    23 ar  
     6     2    30 1   
     7     3    19 2   
     8     4     5 ar  
     9     4    11 ar  
    10     4    23 1   
    11     5     7 ar  
    12     5    31 1   
    13     6     7 ar  
    14     6     8 ar  
    15     6    32 1   
    16     7    33 1   
    17     8    11 ar  
    18     8    25 1   
    19     9    22 ar  
    20     9    48 1   
    21    10    24 1   
    22    10    34 1   
    23    10    35 1   
    24    10    36 1   
    25    11    37 1   
    26    12    13 ar  
    27    12    23 ar  
    28    12    38 1   
    29    13    14 1   
    30    13    22 ar  
    31    14    15 ar  
    32    14    21 ar  
    33    15    16 ar  
    34    15    39 1   
    35    16    17 ar  
    36    16    40 1   
    37    17    18 ar  
    38    17    41 1   
    39    18    21 ar  
    40    19    20 1   
    41    20    42 1   
    42    20    43 1   
    43    20    44 1   
    44    21    45 1   
    45    22    46 1   
    46    24    25 1   
    47    24    27 2   
    48    25    47 1   
    49    26    48 1   
    50    28    48 1   
@<TRIPOS>SUBSTRUCTURE
     1 F1C         1 TEMP              0 ****  ****    0 ROOT
