@<TRIPOS>MOLECULE
F1C
   48    50     1     0     0
SMALL
No Charge or Current Charge


@<TRIPOS>ATOM
      1 N1          -6.1450    -0.2700    -0.1020 ns         1 F1C      -0.142500
      2 C2           1.1680     1.5750    -0.3240 ca         1 F1C      -0.058000
      3 O2          -7.8560    -1.6690     0.6010 o          1 F1C      -0.598600
      4 C4           2.4650    -0.6000    -0.5030 cp         1 F1C       0.028000
      5 C5           2.4510    -1.8480    -1.1720 ca         1 F1C      -0.134500
      6 C7           4.8690    -2.0360    -0.9710 ca         1 F1C      -0.146000
      7 C6           3.6390    -2.5570    -1.4030 ca         1 F1C      -0.097000
      8 C8           4.9190    -0.7960    -0.3000 ca         1 F1C      -0.031000
      9 C1          -0.0210     2.3040    -0.0970 ca         1 F1C      -0.145600
     10 C10          8.4230     0.3720     0.7760 c3         1 F1C      -0.182100
     11 C11          3.7180    -0.0950    -0.0760 ca         1 F1C      -0.157500
     12 C12         -0.0090    -0.5120     0.0500 ca         1 F1C      -0.098000
     13 C13         -1.2220     0.1780     0.2850 cp         1 F1C      -0.092000
     14 C14         -2.4830    -0.5630     0.6100 cp         1 F1C       0.028000
     15 C15         -2.4590    -1.7340     1.4050 ca         1 F1C      -0.134500
     16 C16         -3.6410    -2.4250     1.7100 ca         1 F1C      -0.097000
     17 C17         -4.8750    -1.9630     1.2250 ca         1 F1C      -0.146000
     18 C18         -4.9350    -0.8000     0.4290 ca         1 F1C      -0.031000
     19 C19         -7.4690    -0.6810    -0.0130 c          1 F1C       0.607100
     20 C20         -8.4480     0.2190    -0.7630 c3         1 F1C      -0.182100
     21 C21         -3.7410    -0.1150     0.1330 ca         1 F1C      -0.157500
     22 C22         -1.2040     1.5920     0.2060 ca         1 F1C      -0.058000
     23 C3           1.1980     0.1600    -0.2560 cp         1 F1C      -0.092000
     24 C9           7.4510    -0.6100     0.1250 c          1 F1C       0.607100
     25 N            6.1240    -0.2030     0.1720 ns         1 F1C      -0.142500
     26 O            1.0220     4.4000    -0.4170 o          1 F1C      -0.717000
     27 O1           7.8470    -1.6530    -0.3840 o          1 F1C      -0.598600
     28 O3          -1.0830     4.4130     0.0040 o          1 F1C      -0.717000
     29 H13         -6.0130     0.5690    -0.6520 hn         1 F1C       0.152000
     30 H            2.0820     2.1090    -0.5730 ha         1 F1C       0.132000
     31 H1           1.5110    -2.2630    -1.5270 ha         1 F1C       0.116000
     32 H3           5.7670    -2.6130    -1.1670 ha         1 F1C       0.136000
     33 H2           3.6070    -3.5130    -1.9220 ha         1 F1C       0.102000
     34 H5           8.1050     0.5570     1.8080 hc         1 F1C       0.059200
     35 H6           9.4640     0.0330     0.7280 hc         1 F1C       0.059200
     36 H7           8.2970     1.3580     0.3140 hc         1 F1C       0.059200
     37 H8           3.7540     0.8540     0.4530 ha         1 F1C       0.122000
     38 H9          -0.0050    -1.5970     0.1070 ha         1 F1C       0.095000
     39 H10         -1.5160    -2.1020     1.8020 ha         1 F1C       0.116000
     40 H11         -3.6010    -3.3210     2.3260 ha         1 F1C       0.102000
     41 H12         -5.7690    -2.5230     1.4810 ha         1 F1C       0.136000
     42 H14         -8.3310     1.2490    -0.4060 hc         1 F1C       0.059200
     43 H15         -8.1310     0.2990    -1.8090 hc         1 F1C       0.059200
     44 H16         -9.4860    -0.1220    -0.6800 hc         1 F1C       0.059200
     45 H17         -3.7840     0.7730    -0.4920 ha         1 F1C       0.122000
     46 H18         -2.1230     2.1410     0.3980 ha         1 F1C       0.132000
     47 H4           5.9850     0.6870     0.6320 hn         1 F1C       0.152000
     48 C           -0.0280     3.8210    -0.1760 c          1 F1C       0.715600
@<TRIPOS>BOND
     1     1    18 1   
     2     1    19 1   
     3     1    29 1   
     4     2     9 ar  
     5     2    23 ar  
     6     2    30 1   
     7     3    19 2   
     8     4     5 ar  
     9     4    11 ar  
    10     4    23 1   
    11     5     7 ar  
    12     5    31 1   
    13     6     7 ar  
    14     6     8 ar  
    15     6    32 1   
    16     7    33 1   
    17     8    11 ar  
    18     8    25 1   
    19     9    22 ar  
    20     9    48 1   
    21    10    24 1   
    22    10    34 1   
    23    10    35 1   
    24    10    36 1   
    25    11    37 1   
    26    12    13 ar  
    27    12    23 ar  
    28    12    38 1   
    29    13    14 1   
    30    13    22 ar  
    31    14    15 ar  
    32    14    21 ar  
    33    15    16 ar  
    34    15    39 1   
    35    16    17 ar  
    36    16    40 1   
    37    17    18 ar  
    38    17    41 1   
    39    18    21 ar  
    40    19    20 1   
    41    20    42 1   
    42    20    43 1   
    43    20    44 1   
    44    21    45 1   
    45    22    46 1   
    46    24    25 1   
    47    24    27 2   
    48    25    47 1   
    49    26    48 1   
    50    28    48 1   
@<TRIPOS>SUBSTRUCTURE
     1 F1C         1 TEMP              0 ****  ****    0 ROOT
