@<TRIPOS>MOLECULE
F1D
   58    61     1     0     0
SMALL
No Charge or Current Charge


@<TRIPOS>ATOM
      1 C1          -7.4960    -1.9980     0.2060 c          1 F1D       0.640100
      2 C2          -6.1220    -0.5070    -1.3090 c6         1 F1D       0.103500
      3 C3          -4.6670    -0.1190    -1.6540 c6         1 F1D      -0.122400
      4 O1          -7.7500    -2.5190     1.2820 o          1 F1D      -0.539000
      5 O2          -2.5820     0.8050    -0.8220 os         1 F1D      -0.349100
      6 O3           5.3880    -2.8200     2.1190 o          1 F1D      -0.449000
      7 C11          0.5230     2.3740     0.4030 ca         1 F1D      -0.074300
      8 C12         -0.3960     1.6360    -0.3710 ca         1 F1D      -0.127000
      9 C13          1.9920     2.4470    -0.0230 c3         1 F1D       0.303800
     10 C14          2.5160     3.9000    -0.0880 c3         1 F1D      -0.030300
     11 C15          3.8260     4.0140    -0.7360 c1         1 F1D       0.301900
     12 C16          3.6120     0.6310     0.6190 cc         1 F1D       0.813900
     13 C17          5.5720    -2.1770     1.0950 c          1 F1D       0.557800
     14 C18          6.5380    -2.6530     0.0110 c6         1 F1D      -0.281700
     15 C19          6.0500    -2.3120    -1.3820 c2         1 F1D       0.471300
     16 C20          6.6750    -3.0470    -2.5400 c3         1 F1D      -0.145400
     17 C21          4.7690    -0.5960    -0.5170 cd         1 F1D       0.662500
     18 N5           5.3090    -1.2570    -1.5890 nf         1 F1D      -0.603700
     19 N4           4.8430    -1.0210     0.7850 n          1 F1D      -0.089500
     20 N3           4.0180    -0.1990     1.5420 nd         1 F1D      -0.556800
     21 N6           4.0110     0.4600    -0.6530 nc         1 F1D      -0.694000
     22 N2           2.7870     1.6450     0.9200 nu         1 F1D      -0.937100
     23 N1           4.8600     4.1410    -1.2580 n1         1 F1D      -0.454000
     24 C10          0.0640     3.0180     1.5730 ca         1 F1D      -0.143000
     25 C9          -1.2860     2.9360     1.9470 ca         1 F1D      -0.071000
     26 C8          -2.1940     2.2050     1.1640 ca         1 F1D      -0.192000
     27 C7          -1.7470     1.5410     0.0000 ca         1 F1D       0.152100
     28 C4          -3.9260     0.4510    -0.4360 c6         1 F1D       0.179300
     29 C5          -3.9250    -0.6280     0.6630 c6         1 F1D      -0.122400
     30 C6          -5.3620    -1.0180     1.0710 c6         1 F1D       0.103500
     31 N           -6.2870    -1.3220    -0.0630 n          1 F1D      -0.395800
     32 O           -8.3430    -2.0030    -0.8700 os         1 F1D      -0.455100
     33 C           -9.6140    -2.6630    -0.7250 c3         1 F1D       0.169900
     34 H1          -6.7160     0.4110    -1.1960 h1         1 F1D       0.064700
     35 H2          -6.5360    -1.0520    -2.1700 h1         1 F1D       0.064700
     36 H3          -4.1350    -1.0040    -2.0290 hc         1 F1D       0.066450
     37 H4          -4.6670     0.6150    -2.4710 hc         1 F1D       0.066450
     38 H5          -0.0630     1.1240    -1.2710 ha         1 F1D       0.134000
     39 H6           2.0570     2.0310    -1.0410 h1         1 F1D       0.100700
     40 H7           1.8040     4.5130    -0.6520 hc         1 F1D       0.076700
     41 H8           2.5850     4.3280     0.9180 hc         1 F1D       0.076700
     42 H9           7.4680    -2.0890     0.1500 hc         1 F1D       0.106700
     43 H10          6.7580    -3.7200     0.1430 hc         1 F1D       0.106700
     44 H11          6.5210    -4.1280    -2.4440 hc         1 F1D       0.067033
     45 H12          6.2410    -2.7320    -3.4970 hc         1 F1D       0.067033
     46 H13          7.7540    -2.8600    -2.5830 hc         1 F1D       0.067033
     47 H14          2.4370     1.5530     1.8670 hn         1 F1D       0.508000
     48 H15          0.7520     3.5830     2.1980 ha         1 F1D       0.113000
     49 H16         -1.6310     3.4420     2.8470 ha         1 F1D       0.114000
     50 H17         -3.2330     2.1680     1.4780 ha         1 F1D       0.118000
     51 H18         -4.4590     1.3510    -0.0980 h1         1 F1D       0.041700
     52 H19         -3.3950    -1.5210     0.3020 hc         1 F1D       0.066450
     53 H20         -3.3790    -0.2840     1.5510 hc         1 F1D       0.066450
     54 H21         -5.3080    -1.8870     1.7420 h1         1 F1D       0.064700
     55 H22         -5.7990    -0.1940     1.6530 h1         1 F1D       0.064700
     56 H23         -9.4780    -3.7270    -0.4900 h1         1 F1D       0.048700
     57 H24        -10.2060    -2.2020     0.0760 h1         1 F1D       0.048700
     58 H25        -10.1890    -2.5920    -1.6570 h1         1 F1D       0.048700
@<TRIPOS>BOND
     1     1     4 2   
     2     1    31 1   
     3     1    32 1   
     4     2     3 1   
     5     2    31 1   
     6     2    34 1   
     7     2    35 1   
     8     3    28 1   
     9     3    36 1   
    10     3    37 1   
    11     5    27 1   
    12     5    28 1   
    13     6    13 2   
    14     7     8 ar  
    15     7     9 1   
    16     7    24 ar  
    17     8    27 ar  
    18     8    38 1   
    19     9    10 1   
    20     9    22 1   
    21     9    39 1   
    22    10    11 1   
    23    10    40 1   
    24    10    41 1   
    25    11    23 3   
    26    12    20 2   
    27    12    21 1   
    28    12    22 1   
    29    13    14 1   
    30    13    19 1   
    31    14    15 1   
    32    14    42 1   
    33    14    43 1   
    34    15    16 1   
    35    15    18 2   
    36    16    44 1   
    37    16    45 1   
    38    16    46 1   
    39    17    18 1   
    40    17    19 1   
    41    17    21 2   
    42    19    20 1   
    43    22    47 1   
    44    24    25 ar  
    45    24    48 1   
    46    25    26 ar  
    47    25    49 1   
    48    26    27 ar  
    49    26    50 1   
    50    28    29 1   
    51    28    51 1   
    52    29    30 1   
    53    29    52 1   
    54    29    53 1   
    55    30    31 1   
    56    30    54 1   
    57    30    55 1   
    58    32    33 1   
    59    33    56 1   
    60    33    57 1   
    61    33    58 1   
@<TRIPOS>SUBSTRUCTURE
     1 F1D         1 TEMP              0 ****  ****    0 ROOT
