@<TRIPOS>MOLECULE
F1D
   58    61     1     0     0
SMALL
abcg2


@<TRIPOS>ATOM
      1 C1          -6.8010    -2.0840    -0.0680 c          1 F1D       0.640100
      2 C2          -6.4580     0.2500    -0.8390 c6         1 F1D       0.103500
      3 C3          -5.0250     0.5450    -1.2700 c6         1 F1D      -0.122400
      4 O1          -6.6590    -2.9930     0.7280 o          1 F1D      -0.539000
      5 O2          -2.8450     1.0810    -0.5250 os         1 F1D      -0.349100
      6 O3           6.1870    -1.8870     2.2310 o          1 F1D      -0.449000
      7 C11          0.4050     2.3240     0.4230 ca         1 F1D      -0.074300
      8 C12         -0.6200     1.6890    -0.2560 ca         1 F1D      -0.127000
      9 C13          1.8120     2.2670    -0.1280 c3         1 F1D       0.303800
     10 C14          2.2920     3.6820    -0.5040 c3         1 F1D      -0.030300
     11 C15          3.6420     3.6550    -1.0420 c1         1 F1D       0.301900
     12 C16          3.5000     0.5840     0.4990 cc         1 F1D       0.813900
     13 C17          5.7860    -1.8820     1.0960 c          1 F1D       0.557800
     14 C18          6.2250    -2.8470     0.0300 c6         1 F1D      -0.281700
     15 C19          5.6420    -2.6690    -1.3380 c2         1 F1D       0.471300
     16 C20          6.1050    -3.6210    -2.3810 c3         1 F1D      -0.145400
     17 C21          4.3930    -0.9220    -0.6440 cd         1 F1D       0.662500
     18 N5           4.7850    -1.7670    -1.6420 nf         1 F1D      -0.603700
     19 N4           4.8590    -0.9770     0.6370 n          1 F1D      -0.089500
     20 N3           4.2790     0.0000     1.3810 nd         1 F1D      -0.556800
     21 N6           3.5380     0.0490    -0.7600 nc         1 F1D      -0.694000
     22 N2           2.7190     1.6390     0.8010 nu         1 F1D      -0.937100
     23 N1           4.7100     3.6220    -1.4690 n1         1 F1D      -0.454000
     24 C10          0.1310     3.0020     1.6100 ca         1 F1D      -0.143000
     25 C9          -1.1660     3.0290     2.0920 ca         1 F1D      -0.071000
     26 C8          -2.2020     2.3950     1.4160 ca         1 F1D      -0.192000
     27 C7          -1.9300     1.7190     0.2300 ca         1 F1D       0.152100
     28 C4          -4.1790     0.9090    -0.0590 c6         1 F1D       0.179300
     29 C5          -4.2660    -0.1740     1.0110 c6         1 F1D      -0.122400
     30 C6          -5.7250    -0.4510     1.3630 c6         1 F1D       0.103500
     31 N           -6.4840    -0.7920     0.1740 n          1 F1D      -0.395800
     32 O           -7.3220    -2.2600    -1.2840 os         1 F1D      -0.455100
     33 C           -7.7190    -3.5830    -1.6290 c3         1 F1D       0.169900
     34 H1          -6.9080     1.1500    -0.4070 h1         1 F1D       0.064700
     35 H2          -7.0670    -0.0250    -1.6940 h1         1 F1D       0.064700
     36 H3          -4.6060    -0.3350    -1.7670 hc         1 F1D       0.066450
     37 H4          -5.0250     1.3660    -1.9900 hc         1 F1D       0.066450
     38 H5          -0.4140     1.1590    -1.1790 ha         1 F1D       0.134000
     39 H6           1.8080     1.6630    -1.0340 h1         1 F1D       0.100700
     40 H7           1.6260     4.1180    -1.2510 hc         1 F1D       0.076700
     41 H8           2.2830     4.3440     0.3640 hc         1 F1D       0.076700
     42 H9           7.3160    -2.8100    -0.0410 hc         1 F1D       0.106700
     43 H10          5.9990    -3.8620     0.3760 hc         1 F1D       0.106700
     44 H11          5.8430    -4.6420    -2.0970 hc         1 F1D       0.067033
     45 H12          5.6610    -3.3930    -3.3460 hc         1 F1D       0.067033
     46 H13          7.1930    -3.5890    -2.4670 hc         1 F1D       0.067033
     47 H14          2.7420     1.9640     1.7550 hn         1 F1D       0.508000
     48 H15          0.9140     3.5100     2.1590 ha         1 F1D       0.113000
     49 H16         -1.3860     3.5520     3.0130 ha         1 F1D       0.114000
     50 H17         -3.2000     2.4480     1.8270 ha         1 F1D       0.118000
     51 H18         -4.5590     1.8560     0.3460 h1         1 F1D       0.041700
     52 H19         -3.7960    -1.0910     0.6400 hc         1 F1D       0.066450
     53 H20         -3.7330     0.1210     1.9170 hc         1 F1D       0.066450
     54 H21         -5.7980    -1.2510     2.0940 h1         1 F1D       0.064700
     55 H22         -6.1750     0.4390     1.8140 h1         1 F1D       0.064700
     56 H23         -6.8830    -4.2800    -1.5870 h1         1 F1D       0.048700
     57 H24         -8.5210    -3.9460    -0.9860 h1         1 F1D       0.048700
     58 H25         -8.0830    -3.5240    -2.6510 h1         1 F1D       0.048700
@<TRIPOS>BOND
     1     1     4 2   
     2     1    31 1   
     3     1    32 1   
     4     2     3 1   
     5     2    31 1   
     6     2    34 1   
     7     2    35 1   
     8     3    28 1   
     9     3    36 1   
    10     3    37 1   
    11     5    27 1   
    12     5    28 1   
    13     6    13 2   
    14     7     8 ar  
    15     7     9 1   
    16     7    24 ar  
    17     8    27 ar  
    18     8    38 1   
    19     9    10 1   
    20     9    22 1   
    21     9    39 1   
    22    10    11 1   
    23    10    40 1   
    24    10    41 1   
    25    11    23 3   
    26    12    20 2   
    27    12    21 1   
    28    12    22 1   
    29    13    14 1   
    30    13    19 1   
    31    14    15 1   
    32    14    42 1   
    33    14    43 1   
    34    15    16 1   
    35    15    18 2   
    36    16    44 1   
    37    16    45 1   
    38    16    46 1   
    39    17    18 1   
    40    17    19 1   
    41    17    21 2   
    42    19    20 1   
    43    22    47 1   
    44    24    25 ar  
    45    24    48 1   
    46    25    26 ar  
    47    25    49 1   
    48    26    27 ar  
    49    26    50 1   
    50    28    29 1   
    51    28    51 1   
    52    29    30 1   
    53    29    52 1   
    54    29    53 1   
    55    30    31 1   
    56    30    54 1   
    57    30    55 1   
    58    32    33 1   
    59    33    56 1   
    60    33    57 1   
    61    33    58 1   
@<TRIPOS>SUBSTRUCTURE
     1 F1D         1 TEMP              0 ****  ****    0 ROOT
