@<TRIPOS>MOLECULE
F1E
   47    48     1     0     0
SMALL
No Charge or Current Charge


@<TRIPOS>ATOM
      1 O1           3.3540    -0.8170     1.4240 o          1 F1E      -0.479000
      2 C2           3.5020    -1.2510     0.2870 c          1 F1E       0.583100
      3 O            4.6650    -1.8060    -0.1820 os         1 F1E      -0.453100
      4 C1           5.7860    -1.8820     0.7150 c3         1 F1E       0.168600
      5 C            6.9460    -2.5360    -0.0530 c3         1 F1E      -0.097100
      6 C3           2.4020    -1.2430    -0.7950 c3         1 F1E       0.045000
      7 N            1.1920    -0.5100    -0.3620 ns         1 F1E      -0.501900
      8 C4           0.0080    -0.4870    -1.0530 c          1 F1E       0.657100
      9 O2          -0.1220    -1.0930    -2.1050 o          1 F1E      -0.653100
     10 N1          -1.0330     0.2690    -0.4780 n          1 F1E      -0.425800
     11 C12         -0.8900     0.9600     0.8310 c3         1 F1E       0.083700
     12 C13          0.0270     2.1560     0.7520 cc         1 F1E       0.175300
     13 C14         -0.1560     3.3060     0.0500 cd         1 F1E      -0.199000
     14 N3           0.9850     4.0260     0.3180 na         1 F1E       0.128800
     15 C15          1.3430     5.3600    -0.1780 c3         1 F1E       0.063900
     16 N4           1.8130     3.3190     1.1510 nd         1 F1E      -0.192800
     17 N5           1.2230     2.1800     1.4100 nc         1 F1E      -0.373000
     18 C5          -2.3490     0.3720    -1.1470 c3         1 F1E       0.167300
     19 C6          -3.4100    -0.5110    -0.5020 ca         1 F1E      -0.159300
     20 C7          -4.4240     0.0580     0.2940 ca         1 F1E      -0.055500
     21 C8          -5.3970    -0.7640     0.8900 ca         1 F1E      -0.182500
     22 C9          -5.3640    -2.1520     0.6950 ca         1 F1E       0.294000
     23 N2          -6.3130    -2.9480     1.2750 nv         1 F1E      -1.072000
     24 C10         -4.3570    -2.7220    -0.0960 ca         1 F1E      -0.182500
     25 C11         -3.3810    -1.9050    -0.6940 ca         1 F1E      -0.055500
     26 H1           6.0890    -0.8820     1.0520 h1         1 F1E       0.048700
     27 H2           5.5430    -2.4900     1.5970 h1         1 F1E       0.048700
     28 H3           7.2140    -1.9370    -0.9310 hc         1 F1E       0.046700
     29 H4           7.8290    -2.6180     0.5910 hc         1 F1E       0.046700
     30 H5           6.6690    -3.5430    -0.3870 hc         1 F1E       0.046700
     31 H6           2.8130    -0.7750    -1.6980 h1         1 F1E       0.077700
     32 H7           2.1470    -2.2850    -1.0270 h1         1 F1E       0.077700
     33 H8           1.2410     0.0510     0.4810 hn         1 F1E       0.350500
     34 H9          -1.8740     1.3030     1.1780 h1         1 F1E       0.072700
     35 H10         -0.5180     0.2500     1.5820 h1         1 F1E       0.072700
     36 H11         -0.9620     3.6450    -0.5880 h4         1 F1E       0.168000
     37 H12          1.4930     6.0380     0.6700 h1         1 F1E       0.065033
     38 H13          2.2690     5.2960    -0.7630 h1         1 F1E       0.065033
     39 H14          0.5380     5.7470    -0.8140 h1         1 F1E       0.065033
     40 H15         -2.6750     1.4200    -1.1140 h1         1 F1E       0.058200
     41 H16         -2.2590     0.1090    -2.2090 h1         1 F1E       0.058200
     42 H17         -4.4590     1.1340     0.4540 ha         1 F1E       0.116500
     43 H18         -6.1750    -0.3170     1.5030 ha         1 F1E       0.111500
     44 H19         -7.1220    -2.5250     1.7250 hn         1 F1E       0.447000
     45 H20         -6.3760    -3.9310     1.0180 hn         1 F1E       0.447000
     46 H21         -4.3250    -3.7970    -0.2500 ha         1 F1E       0.111500
     47 H22         -2.6010    -2.3560    -1.3050 ha         1 F1E       0.116500
@<TRIPOS>BOND
     1     1     2 2   
     2     2     3 1   
     3     2     6 1   
     4     3     4 1   
     5     4     5 1   
     6     4    26 1   
     7     4    27 1   
     8     5    28 1   
     9     5    29 1   
    10     5    30 1   
    11     6     7 1   
    12     6    31 1   
    13     6    32 1   
    14     7     8 1   
    15     7    33 1   
    16     8     9 2   
    17     8    10 1   
    18    10    11 1   
    19    10    18 1   
    20    11    12 1   
    21    11    34 1   
    22    11    35 1   
    23    12    13 2   
    24    12    17 1   
    25    13    14 1   
    26    13    36 1   
    27    14    15 1   
    28    14    16 1   
    29    15    37 1   
    30    15    38 1   
    31    15    39 1   
    32    16    17 2   
    33    18    19 1   
    34    18    40 1   
    35    18    41 1   
    36    19    20 ar  
    37    19    25 ar  
    38    20    21 ar  
    39    20    42 1   
    40    21    22 ar  
    41    21    43 1   
    42    22    23 1   
    43    22    24 ar  
    44    23    44 1   
    45    23    45 1   
    46    24    25 ar  
    47    24    46 1   
    48    25    47 1   
@<TRIPOS>SUBSTRUCTURE
     1 F1E         1 TEMP              0 ****  ****    0 ROOT
