@<TRIPOS>MOLECULE
F1E
   47    48     1     0     0
SMALL
abcg2


@<TRIPOS>ATOM
      1 O1           3.6430    -0.8140     1.2800 o          1 F1E      -0.479000
      2 C2           3.6870    -1.3820     0.2200 c          1 F1E       0.583100
      3 O            4.7110    -2.1020    -0.2030 os         1 F1E      -0.453100
      4 C1           5.8560    -2.2280     0.6580 c3         1 F1E       0.168600
      5 C            6.8920    -3.0450    -0.0730 c3         1 F1E      -0.097100
      6 C3           2.5870    -1.3690    -0.8160 c3         1 F1E       0.045000
      7 N            1.4830    -0.5690    -0.3680 ns         1 F1E      -0.501900
      8 C4           0.2690    -0.7040    -0.9750 c          1 F1E       0.657100
      9 O2           0.0820    -1.5100    -1.8820 o          1 F1E      -0.653100
     10 N1          -0.7270     0.0950    -0.4910 n          1 F1E      -0.425800
     11 C12         -0.6210     0.8310     0.7540 c3         1 F1E       0.083700
     12 C13         -0.0480     2.1980     0.5830 cc         1 F1E       0.175300
     13 C14         -0.6560     3.4270     0.5570 cd         1 F1E      -0.199000
     14 N3           0.3490     4.2870     0.3240 na         1 F1E       0.128800
     15 C15          0.2950     5.7310     0.2490 c3         1 F1E       0.063900
     16 N4           1.5000     3.6520     0.2150 nd         1 F1E      -0.192800
     17 N5           1.2700     2.3940     0.3690 nc         1 F1E      -0.373000
     18 C5          -1.9780     0.2270    -1.2170 c3         1 F1E       0.167300
     19 C6          -3.1250    -0.4900    -0.5550 ca         1 F1E      -0.159300
     20 C7          -4.2310     0.1990    -0.0730 ca         1 F1E      -0.055500
     21 C8          -5.2890    -0.4600     0.5390 ca         1 F1E      -0.182500
     22 C9          -5.2670    -1.8490     0.6940 ca         1 F1E       0.294000
     23 N2          -6.2830    -2.5100     1.3520 nv         1 F1E      -1.072000
     24 C10         -4.1520    -2.5470     0.2080 ca         1 F1E      -0.182500
     25 C11         -3.1080    -1.8760    -0.4020 ca         1 F1E      -0.055500
     26 H1           6.2410    -1.2370     0.9040 h1         1 F1E       0.048700
     27 H2           5.5590    -2.7150     1.5890 h1         1 F1E       0.048700
     28 H3           7.2020    -2.5600    -0.9980 hc         1 F1E       0.046700
     29 H4           7.7720    -3.1540     0.5590 hc         1 F1E       0.046700
     30 H5           6.5230    -4.0440    -0.3090 hc         1 F1E       0.046700
     31 H6           3.0110    -1.0240    -1.7670 h1         1 F1E       0.077700
     32 H7           2.2610    -2.3970    -0.9830 h1         1 F1E       0.077700
     33 H8           1.7240     0.3300     0.0340 hn         1 F1E       0.350500
     34 H9          -1.6190     0.9050     1.1890 h1         1 F1E       0.072700
     35 H10         -0.0260     0.2620     1.4690 h1         1 F1E       0.072700
     36 H11         -1.6790     3.7370     0.6850 h4         1 F1E       0.168000
     37 H12          0.5440     6.1710     1.2130 h1         1 F1E       0.065033
     38 H13          0.9990     6.0770    -0.5020 h1         1 F1E       0.065033
     39 H14         -0.7080     6.0340    -0.0350 h1         1 F1E       0.065033
     40 H15         -2.2160     1.2920    -1.3090 h1         1 F1E       0.058200
     41 H16         -1.8270    -0.1420    -2.2290 h1         1 F1E       0.058200
     42 H17         -4.2790     1.2770    -0.1790 ha         1 F1E       0.116500
     43 H18         -6.1360     0.1080     0.9050 ha         1 F1E       0.111500
     44 H19         -7.1730    -2.0370     1.3670 hn         1 F1E       0.447000
     45 H20         -6.3860    -3.4860     1.1270 hn         1 F1E       0.447000
     46 H21         -4.1110    -3.6250     0.3100 ha         1 F1E       0.111500
     47 H22         -2.2640    -2.4430    -0.7750 ha         1 F1E       0.116500
@<TRIPOS>BOND
     1     1     2 2   
     2     2     3 1   
     3     2     6 1   
     4     3     4 1   
     5     4     5 1   
     6     4    26 1   
     7     4    27 1   
     8     5    28 1   
     9     5    29 1   
    10     5    30 1   
    11     6     7 1   
    12     6    31 1   
    13     6    32 1   
    14     7     8 1   
    15     7    33 1   
    16     8     9 2   
    17     8    10 1   
    18    10    11 1   
    19    10    18 1   
    20    11    12 1   
    21    11    34 1   
    22    11    35 1   
    23    12    13 2   
    24    12    17 1   
    25    13    14 1   
    26    13    36 1   
    27    14    15 1   
    28    14    16 1   
    29    15    37 1   
    30    15    38 1   
    31    15    39 1   
    32    16    17 2   
    33    18    19 1   
    34    18    40 1   
    35    18    41 1   
    36    19    20 ar  
    37    19    25 ar  
    38    20    21 ar  
    39    20    42 1   
    40    21    22 ar  
    41    21    43 1   
    42    22    23 1   
    43    22    24 ar  
    44    23    44 1   
    45    23    45 1   
    46    24    25 ar  
    47    24    46 1   
    48    25    47 1   
@<TRIPOS>SUBSTRUCTURE
     1 F1E         1 TEMP              0 ****  ****    0 ROOT
