@<TRIPOS>MOLECULE
F1G
   29    30     1     0     0
SMALL
abcg2


@<TRIPOS>ATOM
      1 F18         55.0260    29.9570    43.6220 f          1 F1G      -0.105000
      2 C15         55.9610    29.9310    42.6430 c3         1 F1G       0.282700
      3 F16         57.0830    30.4740    43.1420 f          1 F1G      -0.105000
      4 F17         55.5110    30.7700    41.6770 f          1 F1G      -0.105000
      5 C12         56.1670    28.5470    42.1310 cc         1 F1G       0.190300
      6 C9          55.1770    27.6010    41.7790 cc         1 F1G      -0.152000
      7 C10         55.9230    26.5000    41.3460 cd         1 F1G      -0.215000
      8 N14         57.2320    26.8070    41.4540 na         1 F1G       0.148800
      9 C19         58.3780    26.0020    41.0740 c3         1 F1G       0.077900
     10 N13         57.3880    28.0650    41.9280 nd         1 F1G      -0.443800
     11 S11         54.9590    25.1650    40.8480 ss         1 F1G       0.297000
     12 C8          53.7780    27.3570    41.7110 cc         1 F1G      -0.015000
     13 C6          53.5120    26.1050    41.2340 cd         1 F1G      -0.265600
     14 C5          52.2310    25.4160    40.9750 c          1 F1G       0.641700
     15 O7          52.2310    24.2670    40.5220 o          1 F1G      -0.601100
     16 N4          51.1070    26.1020    41.2640 ns         1 F1G      -0.492900
     17 C3          49.7720    25.6010    40.9970 c3         1 F1G       0.113000
     18 C2          49.1010    26.2910    39.8140 c3         1 F1G       0.054600
     19 S1          50.0010    25.9200    38.2570 sh         1 F1G      -0.431800
     20 H191        58.1870    24.9650    41.3450 h1         1 F1G       0.066367
     21 H192        59.2460    26.3690    41.6140 h1         1 F1G       0.066367
     22 H193        58.5510    26.0730    39.9990 h1         1 F1G       0.066367
     23 H8          53.0230    28.0730    41.9980 ha         1 F1G       0.141000
     24 HN4         51.1840    27.0520    41.5900 hn         1 F1G       0.314500
     25 H31         49.1530    25.7640    41.8820 h1         1 F1G       0.071700
     26 H32         49.8450    24.5280    40.8290 h1         1 F1G       0.071700
     27 H21         49.0900    27.3700    39.9630 h1         1 F1G       0.062200
     28 H22         48.0750    25.9340    39.7300 h1         1 F1G       0.062200
     29 HS1         49.2920    26.7430    37.4670 hs         1 F1G       0.204800
@<TRIPOS>BOND
     1     1     2 1   
     2     2     3 1   
     3     2     4 1   
     4     2     5 1   
     5     5     6 1   
     6     5    10 2   
     7     6     7 2   
     8     6    12 1   
     9     7     8 1   
    10     7    11 1   
    11     8     9 1   
    12     8    10 1   
    13     9    20 1   
    14     9    21 1   
    15     9    22 1   
    16    11    13 1   
    17    12    13 2   
    18    12    23 1   
    19    13    14 1   
    20    14    15 2   
    21    14    16 1   
    22    16    17 1   
    23    16    24 1   
    24    17    18 1   
    25    17    25 1   
    26    17    26 1   
    27    18    19 1   
    28    18    27 1   
    29    18    28 1   
    30    19    29 1   
@<TRIPOS>SUBSTRUCTURE
     1 F1G         1 TEMP              0 ****  ****    0 ROOT
