@<TRIPOS>MOLECULE
F1G
   29    30     1     0     0
SMALL
No Charge or Current Charge


@<TRIPOS>ATOM
      1 F18         54.8600    29.7230    43.6940 f          1 F1G      -0.105000
      2 C15         55.6100    29.8460    42.5740 c3         1 F1G       0.282700
      3 F16         56.6290    30.6870    42.8700 f          1 F1G      -0.105000
      4 F17         54.8420    30.4660    41.6480 f          1 F1G      -0.105000
      5 C12         56.0970    28.4950    42.0780 cc         1 F1G       0.190300
      6 C9          55.2290    27.4510    41.7090 cc         1 F1G      -0.152000
      7 C10         55.9780    26.4450    41.3360 cd         1 F1G      -0.215000
      8 N14         57.3050    26.8100    41.4520 na         1 F1G       0.148800
      9 C19         58.4980    26.0100    41.1450 c3         1 F1G       0.077900
     10 N13         57.3810    28.1310    41.9310 nd         1 F1G      -0.443800
     11 S11         55.1440    25.0000    40.8140 ss         1 F1G       0.297000
     12 C8          53.8440    27.1950    41.6290 cc         1 F1G      -0.015000
     13 C6          53.6170    25.8980    41.1580 cd         1 F1G      -0.265600
     14 C5          52.2950    25.2740    40.9410 c          1 F1G       0.641700
     15 O7          52.1540    24.1320    40.5280 o          1 F1G      -0.601100
     16 N4          51.2280    26.0860    41.2560 ns         1 F1G      -0.492900
     17 C3          49.8140    25.7320    41.0610 c3         1 F1G       0.113000
     18 C2          49.1780    26.4660    39.8610 c3         1 F1G       0.054600
     19 S1          50.0610    26.2320    38.2430 sh         1 F1G      -0.431800
     20 H191        58.4960    25.1040    41.7620 h1         1 F1G       0.066367
     21 H192        59.4020    26.5920    41.3570 h1         1 F1G       0.066367
     22 H193        58.4850    25.7300    40.0850 h1         1 F1G       0.066367
     23 H8          53.0920    27.9290    41.9030 ha         1 F1G       0.141000
     24 HN4         51.4470    27.0120    41.5960 hn         1 F1G       0.314500
     25 H31         49.2590    25.9860    41.9740 h1         1 F1G       0.071700
     26 H32         49.7200    24.6490    40.9090 h1         1 F1G       0.071700
     27 H21         49.1500    27.5420    40.0770 h1         1 F1G       0.062200
     28 H22         48.1420    26.1240    39.7420 h1         1 F1G       0.062200
     29 HS1         49.2270    27.0040    37.5030 hs         1 F1G       0.204800
@<TRIPOS>BOND
     1     1     2 1   
     2     2     3 1   
     3     2     4 1   
     4     2     5 1   
     5     5     6 1   
     6     5    10 2   
     7     6     7 2   
     8     6    12 1   
     9     7     8 1   
    10     7    11 1   
    11     8     9 1   
    12     8    10 1   
    13     9    20 1   
    14     9    21 1   
    15     9    22 1   
    16    11    13 1   
    17    12    13 2   
    18    12    23 1   
    19    13    14 1   
    20    14    15 2   
    21    14    16 1   
    22    16    17 1   
    23    16    24 1   
    24    17    18 1   
    25    17    25 1   
    26    17    26 1   
    27    18    19 1   
    28    18    27 1   
    29    18    28 1   
    30    19    29 1   
@<TRIPOS>SUBSTRUCTURE
     1 F1G         1 TEMP              0 ****  ****    0 ROOT
