@<TRIPOS>MOLECULE
F1H
   44    45     1     0     0
SMALL
bcc


@<TRIPOS>ATOM
      1 C16         -4.5870    -0.4370     1.0900 ca         1 F1H      -0.117000
      2 C17         -5.4110    -1.4160     1.6270 ca         1 F1H      -0.132000
      3 C20         -5.6660    -0.6930    -1.0330 ca         1 F1H      -0.117000
      4 C15         -4.7070    -0.0630    -0.2470 ca         1 F1H      -0.088300
      5 C12         -1.7670     2.2210    -0.5820 c6         1 F1H       0.171300
      6 C13         -0.4010     2.2080     0.0890 c6         1 F1H      -0.091400
      7 C14         -3.8440     1.0340    -0.8190 c3         1 F1H       0.218100
      8 C10         -1.7540    -0.1570    -0.8450 c6         1 F1H       0.171300
      9 C9          -0.3920    -0.2730    -0.1810 c6         1 F1H      -0.091400
     10 C7           6.3790    -0.1670     1.1880 c3         1 F1H       0.032700
     11 C5           3.9990     0.4710     0.7510 c3         1 F1H      -0.160400
     12 C6           5.2450    -0.1830     0.1740 c3         1 F1H      -0.056400
     13 C1           0.4150     1.0080    -0.3750 c6         1 F1H       0.110700
     14 O4           2.9050     0.0760    -1.3590 o          1 F1H      -0.599100
     15 S8           7.8340    -0.9960     0.4640 sh         1 F1H      -0.400900
     16 N2           1.6850     0.9650     0.3200 ns         1 F1H      -0.574900
     17 N11         -2.4840     0.9860    -0.3300 n3         1 F1H      -0.729600
     18 C18         -6.3720    -2.0350     0.8350 ca         1 F1H      -0.127000
     19 C19         -6.4970    -1.6700    -0.4980 ca         1 F1H      -0.132000
     20 H16         -3.8330     0.0360     1.7060 ha         1 F1H       0.135000
     21 H17         -5.3040    -1.6970     2.6670 ha         1 F1H       0.129000
     22 H20         -5.7650    -0.4200    -2.0780 ha         1 F1H       0.135000
     23 H12         -2.3540     3.0550    -0.1900 h1         1 F1H       0.036700
     24 H12A        -1.6380     2.4060    -1.6630 h1         1 F1H       0.036700
     25 H13          0.1250     3.1360    -0.1410 hc         1 F1H       0.051950
     26 H13A        -0.5360     2.1660     1.1750 hc         1 F1H       0.051950
     27 H14         -3.8980     1.0020    -1.9210 h1         1 F1H       0.038200
     28 H14A        -4.2700     1.9980    -0.5260 h1         1 F1H       0.038200
     29 H10         -1.6280    -0.0890    -1.9410 h1         1 F1H       0.036700
     30 H10A        -2.3300    -1.0650    -0.6540 h1         1 F1H       0.036700
     31 H9          -0.5260    -0.4590     0.8890 hc         1 F1H       0.051950
     32 H9A          0.1490    -1.1250    -0.5980 hc         1 F1H       0.051950
     33 H7           6.6460     0.8570     1.4490 h1         1 F1H       0.054200
     34 H7A          6.0840    -0.6850     2.1010 h1         1 F1H       0.054200
     35 H5           3.7010    -0.0360     1.6740 hc         1 F1H       0.055200
     36 H5A          4.2150     1.5060     1.0360 hc         1 F1H       0.055200
     37 H6           5.5570     0.3380    -0.7330 hc         1 F1H       0.072200
     38 H6A          5.0240    -1.2140    -0.1110 hc         1 F1H       0.072200
     39 H1           0.6270     1.1290    -1.4410 h1         1 F1H       0.077700
     40 HS8          8.6960    -0.7520     1.4570 hs         1 F1H       0.208800
     41 HN2          1.6800     1.2080     1.2990 hn         1 F1H       0.306500
     42 H18         -7.0140    -2.7990     1.2550 ha         1 F1H       0.129000
     43 H19         -7.2370    -2.1490    -1.1260 ha         1 F1H       0.129000
     44 C3           2.8210     0.4740    -0.2050 c          1 F1H       0.667100
@<TRIPOS>BOND
     1     1     2 ar  
     2     1     4 ar  
     3     1    20 1   
     4     2    18 ar  
     5     2    21 1   
     6     3     4 ar  
     7     3    19 ar  
     8     3    22 1   
     9     4     7 1   
    10     5     6 1   
    11     5    17 1   
    12     5    23 1   
    13     5    24 1   
    14     6    13 1   
    15     6    25 1   
    16     6    26 1   
    17     7    17 1   
    18     7    27 1   
    19     7    28 1   
    20     8     9 1   
    21     8    17 1   
    22     8    29 1   
    23     8    30 1   
    24     9    13 1   
    25     9    31 1   
    26     9    32 1   
    27    10    12 1   
    28    10    15 1   
    29    10    33 1   
    30    10    34 1   
    31    11    12 1   
    32    11    35 1   
    33    11    36 1   
    34    11    44 1   
    35    12    37 1   
    36    12    38 1   
    37    13    16 1   
    38    13    39 1   
    39    14    44 2   
    40    15    40 1   
    41    16    41 1   
    42    16    44 1   
    43    18    19 ar  
    44    18    42 1   
    45    19    43 1   
@<TRIPOS>SUBSTRUCTURE
     1 F1H         1 TEMP              0 ****  ****    0 ROOT
