@<TRIPOS>MOLECULE
F1H
   44    45     1     0     0
SMALL
No Charge or Current Charge


@<TRIPOS>ATOM
      1 C16         -4.7960    -0.5860     1.2790 ca         1 F1H      -0.099000
      2 C17         -5.4600    -1.7920     1.5640 ca         1 F1H      -0.114000
      3 C20         -5.1530    -0.9510    -1.1000 ca         1 F1H      -0.099000
      4 C15         -4.6390    -0.1570    -0.0540 ca         1 F1H      -0.088300
      5 C12         -1.8420     2.4670    -0.1590 c6         1 F1H       0.171300
      6 C13         -0.3660     2.4450     0.3000 c6         1 F1H      -0.091400
      7 C14         -3.9180     1.1540    -0.3580 c3         1 F1H       0.218100
      8 C10         -1.7210     0.0950    -0.8050 c6         1 F1H       0.171300
      9 C9          -0.2410     0.0230    -0.3640 c6         1 F1H      -0.091400
     10 C7           6.0490    -0.5070     1.1760 c3         1 F1H       0.080600
     11 C5           4.2480     0.9230     0.0150 c3         1 F1H      -0.160400
     12 C6           4.7050    -0.4980     0.4210 c3         1 F1H      -0.056400
     13 C1           0.4450     1.4020    -0.5010 c6         1 F1H       0.110700
     14 O4           2.8150     0.5070    -1.8900 o          1 F1H      -0.599100
     15 S8           6.5960    -2.2060     1.6640 sh         1 F1H      -0.448800
     16 N2           1.8300     1.3470    -0.0170 ns         1 F1H      -0.507900
     17 N11         -2.4710     1.1240    -0.0300 n3         1 F1H      -0.729600
     18 C18         -5.9700    -2.5790     0.5170 ca         1 F1H      -0.109000
     19 C19         -5.8160    -2.1580    -0.8150 ca         1 F1H      -0.114000
     20 H16         -4.3990     0.0170     2.0920 ha         1 F1H       0.117000
     21 H17         -5.5760    -2.1180     2.5950 ha         1 F1H       0.111000
     22 H20         -5.0370    -0.6340    -2.1340 ha         1 F1H       0.117000
     23 H12         -2.3880     3.2030     0.4500 h1         1 F1H       0.036700
     24 H12A        -1.8900     2.8120    -1.2020 h1         1 F1H       0.036700
     25 H13          0.0740     3.4430     0.1700 hc         1 F1H       0.051950
     26 H13A        -0.3220     2.2170     1.3740 hc         1 F1H       0.051950
     27 H14         -4.0560     1.4060    -1.4190 h1         1 F1H       0.038200
     28 H14A        -4.4110     1.9470     0.2210 h1         1 F1H       0.038200
     29 H10         -1.7660     0.3200    -1.8810 h1         1 F1H       0.036700
     30 H10A        -2.1700    -0.8990    -0.6640 h1         1 F1H       0.036700
     31 H9          -0.1870    -0.3240     0.6770 hc         1 F1H       0.051950
     32 H9A          0.2860    -0.7230    -0.9720 hc         1 F1H       0.051950
     33 H7           6.8270    -0.0620     0.5420 h1         1 F1H       0.054200
     34 H7A          5.9610     0.1020     2.0850 h1         1 F1H       0.054200
     35 H5           4.1540     1.5310     0.9230 hc         1 F1H       0.055200
     36 H5A          5.0070     1.3580    -0.6460 hc         1 F1H       0.055200
     37 H6           4.7970    -1.1230    -0.4760 hc         1 F1H       0.072200
     38 H6A          3.9370    -0.9610     1.0540 hc         1 F1H       0.072200
     39 H1           0.4530     1.6970    -1.5620 h1         1 F1H       0.077700
     40 HS8          7.7490    -1.8230     2.2690 hs         1 F1H       0.208800
     41 HN2          2.0160     1.6500     0.9320 hn         1 F1H       0.306500
     42 H18         -6.4830    -3.5120     0.7370 ha         1 F1H       0.111000
     43 H19         -6.2100    -2.7660    -1.6260 ha         1 F1H       0.111000
     44 C3           2.9110     0.8880    -0.7330 c          1 F1H       0.600100
@<TRIPOS>BOND
     1     1     2 ar  
     2     1     4 ar  
     3     1    20 1   
     4     2    18 ar  
     5     2    21 1   
     6     3     4 ar  
     7     3    19 ar  
     8     3    22 1   
     9     4     7 1   
    10     5     6 1   
    11     5    17 1   
    12     5    23 1   
    13     5    24 1   
    14     6    13 1   
    15     6    25 1   
    16     6    26 1   
    17     7    17 1   
    18     7    27 1   
    19     7    28 1   
    20     8     9 1   
    21     8    17 1   
    22     8    29 1   
    23     8    30 1   
    24     9    13 1   
    25     9    31 1   
    26     9    32 1   
    27    10    12 1   
    28    10    15 1   
    29    10    33 1   
    30    10    34 1   
    31    11    12 1   
    32    11    35 1   
    33    11    36 1   
    34    11    44 1   
    35    12    37 1   
    36    12    38 1   
    37    13    16 1   
    38    13    39 1   
    39    14    44 2   
    40    15    40 1   
    41    16    41 1   
    42    16    44 1   
    43    18    19 ar  
    44    18    42 1   
    45    19    43 1   
@<TRIPOS>SUBSTRUCTURE
     1 F1H         1 TEMP              0 ****  ****    0 ROOT
