@<TRIPOS>MOLECULE
F1I
   52    53     1     0     0
SMALL
No Charge or Current Charge


@<TRIPOS>ATOM
      1 C28         -3.7900     3.8310     1.2170 c3         1 F1I       0.149900
      2 C27         -4.9380    -2.8910    -1.6360 c3         1 F1I       0.149900
      3 O25         -3.6080     2.4050     1.1620 os         1 F1I      -0.336100
      4 C16         -4.6050    -0.6110    -0.7300 ca         1 F1I       0.186100
      5 C17         -5.4800    -0.0470    -1.6830 ca         1 F1I      -0.239500
      6 C20         -4.2300     1.6100     0.2160 ca         1 F1I       0.186100
      7 C15         -3.9710     0.2200     0.2210 ca         1 F1I      -0.156300
      8 C12         -0.8250    -1.4060     1.7120 c6         1 F1I       0.172800
      9 C13          0.5630    -1.7560     1.1260 c6         1 F1I      -0.090900
     10 C14         -3.0210    -0.3900     1.2560 c3         1 F1I       0.239100
     11 C10         -0.9540     0.6150     0.3160 c6         1 F1I       0.172800
     12 C9           0.4320     0.3100    -0.2980 c6         1 F1I      -0.090900
     13 C7           7.2290    -0.6110    -1.0460 c3         1 F1I       0.080600
     14 C5           4.9690    -1.4440    -0.1320 c3         1 F1I      -0.160400
     15 C6           6.0040    -0.2940    -0.1660 c3         1 F1I      -0.056400
     16 C1           1.3160    -0.4770     0.6940 c6         1 F1I       0.110700
     17 O4           3.8340    -1.0850     1.9750 o          1 F1I      -0.602100
     18 S8           8.4670     0.7640    -1.0900 sh         1 F1I      -0.449800
     19 N2           2.6060    -0.8110     0.0770 ns         1 F1I      -0.507900
     20 N11         -1.6470    -0.6320     0.7450 n3         1 F1I      -0.717600
     21 C18         -5.7270     1.3320    -1.6900 ca         1 F1I      -0.032000
     22 C19         -5.1070     2.1580    -0.7440 ca         1 F1I      -0.239500
     23 H28         -3.4610     4.3020     0.2820 h1         1 F1I       0.040367
     24 H28A        -4.8440     4.0830     1.3900 h1         1 F1I       0.040367
     25 H28B        -3.2000     4.2570     2.0380 h1         1 F1I       0.040367
     26 H27         -4.6420    -2.6380    -2.6620 h1         1 F1I       0.040367
     27 H27A        -4.5980    -3.9130    -1.4270 h1         1 F1I       0.040367
     28 H27B        -6.0330    -2.8770    -1.5690 h1         1 F1I       0.040367
     29 H17         -5.9800    -0.6620    -2.4260 ha         1 F1I       0.119000
     30 H12         -1.3360    -2.3420     1.9830 h1         1 F1I       0.034700
     31 H12A        -0.6880    -0.8320     2.6410 h1         1 F1I       0.034700
     32 H13          1.1490    -2.3040     1.8760 hc         1 F1I       0.049700
     33 H13A         0.4390    -2.4300     0.2680 hc         1 F1I       0.049700
     34 H14         -2.9800     0.2520     2.1460 h1         1 F1I       0.043700
     35 H14A        -3.4570    -1.3390     1.5970 h1         1 F1I       0.043700
     36 H10         -0.8280     1.2950     1.1720 h1         1 F1I       0.034700
     37 H10A        -1.5500     1.1500    -0.4380 h1         1 F1I       0.034700
     38 H9           0.3010    -0.2630    -1.2260 hc         1 F1I       0.049700
     39 H9A          0.9260     1.2520    -0.5760 hc         1 F1I       0.049700
     40 H7           7.7280    -1.5130    -0.6680 h1         1 F1I       0.054200
     41 H7A          6.8990    -0.8110    -2.0740 h1         1 F1I       0.054200
     42 H5           4.6330    -1.6410    -1.1570 hc         1 F1I       0.054200
     43 H5A          5.4560    -2.3370     0.2770 hc         1 F1I       0.054200
     44 H6           6.3460    -0.0800     0.8550 hc         1 F1I       0.071700
     45 H6A          5.5230     0.6180    -0.5400 hc         1 F1I       0.071700
     46 H1           1.5010     0.1500     1.5800 h1         1 F1I       0.077700
     47 HS8          9.3470     0.1460    -1.9170 hs         1 F1I       0.207800
     48 HN2          2.6550    -0.8530    -0.9340 hn         1 F1I       0.306500
     49 H18         -6.4030     1.7600    -2.4280 ha         1 F1I       0.110000
     50 H19         -5.3210     3.2220    -0.7720 ha         1 F1I       0.119000
     51 O26         -4.3560    -1.9720    -0.6950 os         1 F1I      -0.336100
     52 C3           3.7700    -1.0920     0.7550 c          1 F1I       0.601100
@<TRIPOS>BOND
     1     1     3 1   
     2     1    23 1   
     3     1    24 1   
     4     1    25 1   
     5     2    26 1   
     6     2    27 1   
     7     2    28 1   
     8     2    51 1   
     9     3     6 1   
    10     4     5 ar  
    11     4     7 ar  
    12     4    51 1   
    13     5    21 ar  
    14     5    29 1   
    15     6     7 ar  
    16     6    22 ar  
    17     7    10 1   
    18     8     9 1   
    19     8    20 1   
    20     8    30 1   
    21     8    31 1   
    22     9    16 1   
    23     9    32 1   
    24     9    33 1   
    25    10    20 1   
    26    10    34 1   
    27    10    35 1   
    28    11    12 1   
    29    11    20 1   
    30    11    36 1   
    31    11    37 1   
    32    12    16 1   
    33    12    38 1   
    34    12    39 1   
    35    13    15 1   
    36    13    18 1   
    37    13    40 1   
    38    13    41 1   
    39    14    15 1   
    40    14    42 1   
    41    14    43 1   
    42    14    52 1   
    43    15    44 1   
    44    15    45 1   
    45    16    19 1   
    46    16    46 1   
    47    17    52 2   
    48    18    47 1   
    49    19    48 1   
    50    19    52 1   
    51    21    22 ar  
    52    21    49 1   
    53    22    50 1   
@<TRIPOS>SUBSTRUCTURE
     1 F1I         1 TEMP              0 ****  ****    0 ROOT
