@<TRIPOS>MOLECULE
F1I
   52    53     1     0     0
SMALL
bcc


@<TRIPOS>ATOM
      1 C28         -4.1130     3.7240     1.3700 c3         1 F1I       0.126700
      2 C27         -4.4540    -2.7050    -1.7580 c3         1 F1I       0.126700
      3 O25         -3.7870     2.3520     1.2980 os         1 F1I      -0.312900
      4 C16         -4.3610    -0.5330    -0.7970 ca         1 F1I       0.186100
      5 C17         -5.1590    -0.0020    -1.8110 ca         1 F1I      -0.257500
      6 C20         -4.2570     1.6210     0.2680 ca         1 F1I       0.186100
      7 C15         -3.8980     0.2680     0.2550 ca         1 F1I      -0.156300
      8 C12         -0.9660    -1.4800     1.7590 c6         1 F1I       0.172800
      9 C13          0.3830    -1.8910     1.1890 c6         1 F1I      -0.090900
     10 C14         -3.0280    -0.3410     1.3230 c3         1 F1I       0.239100
     11 C10         -0.9290     0.6020     0.5870 c6         1 F1I       0.172800
     12 C9           0.4250     0.2810    -0.0290 c6         1 F1I      -0.090900
     13 C7           7.1360    -0.8530    -1.2010 c3         1 F1I       0.032700
     14 C5           4.8200    -1.0970    -0.2860 c3         1 F1I      -0.160400
     15 C6           6.0040    -0.1580    -0.4590 c3         1 F1I      -0.056400
     16 C1           1.2240    -0.6650     0.8610 c6         1 F1I       0.110700
     17 O4           3.8000     0.4970     1.1980 o          1 F1I      -0.602100
     18 S8           8.5460     0.2950    -1.3460 sh         1 F1I      -0.401900
     19 N2           2.4740    -1.0640     0.2450 ns         1 F1I      -0.574900
     20 N11         -1.6800    -0.6110     0.8470 n3         1 F1I      -0.717600
     21 C18         -5.4900     1.3420    -1.7680 ca         1 F1I      -0.050000
     22 C19         -5.0520     2.1640    -0.7440 ca         1 F1I      -0.257500
     23 H28         -3.7400     4.2830     0.5080 h1         1 F1I       0.040367
     24 H28A        -5.1910     3.8860     1.4530 h1         1 F1I       0.040367
     25 H28B        -3.6320     4.1060     2.2680 h1         1 F1I       0.040367
     26 H27         -4.0970    -2.4120    -2.7490 h1         1 F1I       0.040367
     27 H27A        -4.0500    -3.6860    -1.5180 h1         1 F1I       0.040367
     28 H27B        -5.5450    -2.7730    -1.7830 h1         1 F1I       0.040367
     29 H17         -5.5240    -0.6120    -2.6250 ha         1 F1I       0.137000
     30 H12         -1.5690    -2.3730     1.9380 h1         1 F1I       0.034700
     31 H12A        -0.8110    -1.0020     2.7440 h1         1 F1I       0.034700
     32 H13          0.9050    -2.5280     1.9060 hc         1 F1I       0.049700
     33 H13A         0.2240    -2.4820     0.2810 hc         1 F1I       0.049700
     34 H14         -3.0200     0.2950     2.2200 h1         1 F1I       0.043700
     35 H14A        -3.4630    -1.2930     1.6350 h1         1 F1I       0.043700
     36 H10         -0.7850     1.1940     1.5090 h1         1 F1I       0.034700
     37 H10A        -1.4930     1.2330    -0.1020 h1         1 F1I       0.034700
     38 H9           0.2740    -0.1860    -1.0070 hc         1 F1I       0.049700
     39 H9A          0.9820     1.2070    -0.1930 hc         1 F1I       0.049700
     40 H7           7.4520    -1.7480    -0.6640 h1         1 F1I       0.054200
     41 H7A          6.8130    -1.1510    -2.1990 h1         1 F1I       0.054200
     42 H5           4.4840    -1.4640    -1.2600 hc         1 F1I       0.054200
     43 H5A          5.1280    -1.9850     0.2780 hc         1 F1I       0.054200
     44 H6           6.3560     0.1790     0.5170 hc         1 F1I       0.071700
     45 H6A          5.6970     0.7320    -1.0130 hc         1 F1I       0.071700
     46 H1           1.4690    -0.1490     1.7940 h1         1 F1I       0.077700
     47 HS8          9.3520    -0.4960    -2.0630 hs         1 F1I       0.207800
     48 HN2          2.4330    -1.8160    -0.4250 hn         1 F1I       0.306500
     49 H18         -6.1040     1.7610    -2.5550 ha         1 F1I       0.128000
     50 H19         -5.3320     3.2080    -0.7450 ha         1 F1I       0.137000
     51 O26         -3.9970    -1.8280    -0.7490 os         1 F1I      -0.312900
     52 C3           3.6570    -0.4630     0.4530 c          1 F1I       0.668100
@<TRIPOS>BOND
     1     1     3 1   
     2     1    23 1   
     3     1    24 1   
     4     1    25 1   
     5     2    26 1   
     6     2    27 1   
     7     2    28 1   
     8     2    51 1   
     9     3     6 1   
    10     4     5 ar  
    11     4     7 ar  
    12     4    51 1   
    13     5    21 ar  
    14     5    29 1   
    15     6     7 ar  
    16     6    22 ar  
    17     7    10 1   
    18     8     9 1   
    19     8    20 1   
    20     8    30 1   
    21     8    31 1   
    22     9    16 1   
    23     9    32 1   
    24     9    33 1   
    25    10    20 1   
    26    10    34 1   
    27    10    35 1   
    28    11    12 1   
    29    11    20 1   
    30    11    36 1   
    31    11    37 1   
    32    12    16 1   
    33    12    38 1   
    34    12    39 1   
    35    13    15 1   
    36    13    18 1   
    37    13    40 1   
    38    13    41 1   
    39    14    15 1   
    40    14    42 1   
    41    14    43 1   
    42    14    52 1   
    43    15    44 1   
    44    15    45 1   
    45    16    19 1   
    46    16    46 1   
    47    17    52 2   
    48    18    47 1   
    49    19    48 1   
    50    19    52 1   
    51    21    22 ar  
    52    21    49 1   
    53    22    50 1   
@<TRIPOS>SUBSTRUCTURE
     1 F1I         1 TEMP              0 ****  ****    0 ROOT
