@<TRIPOS>MOLECULE
F1J
   40    41     1     0     0
SMALL
abcg2


@<TRIPOS>ATOM
      1 C15          2.7890     0.9880     0.4790 c          1 F1J       0.591100
      2 C12         -5.4090    -0.8420    -1.1530 ca         1 F1J      -0.154500
      3 C13         -4.0790    -0.6620    -1.5120 ca         1 F1J      -0.073500
      4 C11         -5.7120    -1.0120     0.1820 ca         1 F1J       0.171000
      5 C10         -4.7360    -1.0070     1.1610 ca         1 F1J      -0.154500
      6 C9          -3.4150    -0.8310     0.7800 ca         1 F1J      -0.073500
      7 C8          -3.0670    -0.6590    -0.5580 ca         1 F1J      -0.104300
      8 C7          -1.6240    -0.5120    -0.9640 c3         1 F1J       0.219100
      9 C4           0.5430     0.2430    -0.2760 c6         1 F1J       0.172800
     10 C5           1.2920     1.1120     0.7370 c6         1 F1J       0.094500
     11 C2          -1.3050     1.7530    -0.2100 c6         1 F1J       0.160800
     12 C1          -0.5630     2.6110     0.7940 c6         1 F1J       0.159800
     13 O17          3.4160     1.7980    -0.1840 o          1 F1J      -0.569100
     14 N16          3.3520    -0.1050     1.0230 ns         1 F1J      -0.516900
     15 C18          4.7280    -0.4780     0.8000 c3         1 F1J       0.114000
     16 C19          4.9020    -1.2370    -0.5100 c3         1 F1J       0.054600
     17 S20          6.6620    -1.6790    -0.6940 sh         1 F1J      -0.449800
     18 N6           0.8670     2.4830     0.5840 n7         1 F1J      -0.845400
     19 N3          -0.8870     0.3690    -0.0840 n3         1 F1J      -0.729600
     20 H12         -6.1920    -0.8420    -1.9010 ha         1 F1J       0.131500
     21 H13         -3.8320    -0.5190    -2.5570 ha         1 F1J       0.122000
     22 H10         -5.0030    -1.1390     2.2020 ha         1 F1J       0.131500
     23 H9          -2.6400    -0.8140     1.5360 ha         1 F1J       0.122000
     24 H7          -1.1470    -1.4970    -0.9280 h1         1 F1J       0.040200
     25 H7A         -1.5720    -0.1880    -2.0170 h1         1 F1J       0.040200
     26 H4           0.8540     0.5370    -1.2940 h1         1 F1J       0.043700
     27 H4A          0.8240    -0.8030    -0.1370 h1         1 F1J       0.043700
     28 H5           1.0700     0.7100     1.7400 h1         1 F1J       0.035700
     29 H2          -2.3770     1.8270    -0.0200 h1         1 F1J       0.046700
     30 H2A         -1.1240     2.1360    -1.2290 h1         1 F1J       0.046700
     31 H1          -0.8480     3.6560     0.6600 h1         1 F1J       0.040200
     32 H1A         -0.8730     2.3130     1.8080 h1         1 F1J       0.040200
     33 HN16         2.7790    -0.7320     1.5650 hn         1 F1J       0.314500
     34 H18          5.3510     0.4170     0.8030 h1         1 F1J       0.068700
     35 H18A         5.0470    -1.0980     1.6380 h1         1 F1J       0.068700
     36 H19          4.2930    -2.1410    -0.5020 h1         1 F1J       0.066200
     37 H19A         4.5930    -0.6160    -1.3490 h1         1 F1J       0.066200
     38 HS20         6.5580    -2.3090    -1.8690 hs         1 F1J       0.216800
     39 HN6          1.3640     3.0790     1.2330 hn         1 F1J       0.427000
     40 F14         -6.9960    -1.1830     0.5440 f          1 F1J      -0.180000
@<TRIPOS>BOND
     1     1    10 1   
     2     1    13 2   
     3     1    14 1   
     4     2     3 ar  
     5     2     4 ar  
     6     2    20 1   
     7     3     7 ar  
     8     3    21 1   
     9     4     5 ar  
    10     4    40 1   
    11     5     6 ar  
    12     5    22 1   
    13     6     7 ar  
    14     6    23 1   
    15     7     8 1   
    16     8    19 1   
    17     8    24 1   
    18     8    25 1   
    19     9    10 1   
    20     9    19 1   
    21     9    26 1   
    22     9    27 1   
    23    10    18 1   
    24    10    28 1   
    25    11    12 1   
    26    11    19 1   
    27    11    29 1   
    28    11    30 1   
    29    12    18 1   
    30    12    31 1   
    31    12    32 1   
    32    14    15 1   
    33    14    33 1   
    34    15    16 1   
    35    15    34 1   
    36    15    35 1   
    37    16    17 1   
    38    16    36 1   
    39    16    37 1   
    40    17    38 1   
    41    18    39 1   
@<TRIPOS>SUBSTRUCTURE
     1 F1J         1 TEMP              0 ****  ****    0 ROOT
