@<TRIPOS>MOLECULE
F1J
   40    41     1     0     0
SMALL
No Charge or Current Charge


@<TRIPOS>ATOM
      1 C15          2.8620     0.6900     0.8300 c          1 F1J       0.591100
      2 C12         -5.5330    -0.5430    -1.0390 ca         1 F1J      -0.154500
      3 C13         -4.1500    -0.7580    -1.1860 ca         1 F1J      -0.073500
      4 C11         -6.0880    -0.4150     0.2430 ca         1 F1J       0.171000
      5 C10         -5.2710    -0.4990     1.3810 ca         1 F1J      -0.154500
      6 C9          -3.8890    -0.7130     1.2360 ca         1 F1J      -0.073500
      7 C8          -3.3220    -0.8440    -0.0480 ca         1 F1J      -0.104300
      8 C7          -1.8210    -1.0740    -0.2000 c3         1 F1J       0.219100
      9 C4           0.4600    -0.2140     0.2310 c6         1 F1J       0.172800
     10 C5           1.3200     0.9970     0.7370 c6         1 F1J       0.094500
     11 C2          -1.2790     1.3250    -0.5760 c6         1 F1J       0.160800
     12 C1          -0.4360     2.5460    -0.0870 c6         1 F1J       0.159800
     13 O17          3.6520     1.5330     1.2390 o          1 F1J      -0.569100
     14 N16          3.3030    -0.5610     0.4320 ns         1 F1J      -0.516900
     15 C18          4.7080    -0.9910     0.4380 c3         1 F1J       0.114000
     16 C19          5.5310    -0.3500    -0.6980 c3         1 F1J       0.054600
     17 S20          7.2940    -0.9260    -0.7530 sh         1 F1J      -0.449800
     18 N6           1.0230     2.2500    -0.0560 n7         1 F1J      -0.845400
     19 N3          -1.0050     0.0880     0.2240 n3         1 F1J      -0.729600
     20 H12         -6.1720    -0.4760    -1.9160 ha         1 F1J       0.131500
     21 H13         -3.7240    -0.8550    -2.1830 ha         1 F1J       0.122000
     22 H10         -5.7080    -0.3970     2.3710 ha         1 F1J       0.131500
     23 H9          -3.2550    -0.7740     2.1180 ha         1 F1J       0.122000
     24 H7          -1.5540    -1.9530     0.4030 h1         1 F1J       0.040200
     25 H7A         -1.5970    -1.3290    -1.2450 h1         1 F1J       0.040200
     26 H4           0.7890    -0.4860    -0.7830 h1         1 F1J       0.043700
     27 H4A          0.6530    -1.0800     0.8810 h1         1 F1J       0.043700
     28 H5           1.0160     1.1820     1.7780 h1         1 F1J       0.035700
     29 H2          -2.3430     1.5970    -0.5160 h1         1 F1J       0.046700
     30 H2A         -1.0540     1.1460    -1.6380 h1         1 F1J       0.046700
     31 H1          -0.6240     3.4080    -0.7440 h1         1 F1J       0.040200
     32 H1A         -0.7700     2.8230     0.9240 h1         1 F1J       0.040200
     33 HN16         2.6070    -1.2160     0.0970 hn         1 F1J       0.314500
     34 H18          5.1590    -0.7320     1.4060 h1         1 F1J       0.068700
     35 H18A         4.7410    -2.0830     0.3340 h1         1 F1J       0.068700
     36 H19          5.0610    -0.5870    -1.6610 h1         1 F1J       0.066200
     37 H19A         5.5290     0.7420    -0.5800 h1         1 F1J       0.066200
     38 HS20         7.6640    -0.1780    -1.8230 hs         1 F1J       0.216800
     39 HN6          1.5220     3.0430     0.3700 hn         1 F1J       0.427000
     40 F14         -7.4160    -0.2080     0.3830 f          1 F1J      -0.180000
@<TRIPOS>BOND
     1     1    10 1   
     2     1    13 2   
     3     1    14 1   
     4     2     3 ar  
     5     2     4 ar  
     6     2    20 1   
     7     3     7 ar  
     8     3    21 1   
     9     4     5 ar  
    10     4    40 1   
    11     5     6 ar  
    12     5    22 1   
    13     6     7 ar  
    14     6    23 1   
    15     7     8 1   
    16     8    19 1   
    17     8    24 1   
    18     8    25 1   
    19     9    10 1   
    20     9    19 1   
    21     9    26 1   
    22     9    27 1   
    23    10    18 1   
    24    10    28 1   
    25    11    12 1   
    26    11    19 1   
    27    11    29 1   
    28    11    30 1   
    29    12    18 1   
    30    12    31 1   
    31    12    32 1   
    32    14    15 1   
    33    14    33 1   
    34    15    16 1   
    35    15    34 1   
    36    15    35 1   
    37    16    17 1   
    38    16    36 1   
    39    16    37 1   
    40    17    38 1   
    41    18    39 1   
@<TRIPOS>SUBSTRUCTURE
     1 F1J         1 TEMP              0 ****  ****    0 ROOT
