@<TRIPOS>MOLECULE
F1K
   43    44     1     0     0
SMALL
bcc


@<TRIPOS>ATOM
      1 C24         -4.7370     0.2580     1.4450 ca         1 F1K      -0.090500
      2 C23         -5.9590     0.7190     0.9700 ca         1 F1K      -0.173500
      3 C22         -5.9740     1.4620    -0.1920 ca         1 F1K       0.135900
      4 C20         -3.6080     1.2900    -0.3950 ca         1 F1K      -0.090500
      5 C12          6.5600     0.8530     0.2110 c3         1 F1K       0.038700
      6 C11          5.0860     0.8430    -0.1620 c3         1 F1K      -0.088400
      7 C10          4.4440    -0.4880     0.2000 c3         1 F1K       0.106000
      8 C7           2.2230    -1.5150     0.0660 c          1 F1K       0.658100
      9 C4          -0.0470    -0.7520     0.7250 c6         1 F1K       0.172800
     10 C5           0.7960    -1.3060    -0.4230 c6         1 F1K       0.095500
     11 C2          -1.9820    -1.8070    -0.1860 c6         1 F1K       0.160800
     12 C1          -1.1420    -2.3690    -1.3160 c6         1 F1K       0.157800
     13 F25         -7.1500     1.9100    -0.6640 f          1 F1K      -0.144900
     14 C21         -4.8160     1.7570    -0.8890 ca         1 F1K      -0.173500
     15 C19         -3.5500     0.5390     0.7780 ca         1 F1K      -0.104300
     16 C18         -2.2250     0.0630     1.3130 c3         1 F1K       0.220100
     17 N3          -1.4140    -0.5580     0.2870 n3         1 F1K      -0.729600
     18 N6           0.2250    -2.5590    -0.8640 n7         1 F1K      -0.787200
     19 O9           2.5680    -2.5090     0.6880 o          1 F1K      -0.576100
     20 N8           3.0560    -0.5010    -0.2080 ns         1 F1K      -0.581900
     21 S13          7.2710     2.4720    -0.2350 sh         1 F1K      -0.408900
     22 H24         -4.7160    -0.3360     2.3510 ha         1 F1K       0.139500
     23 H23         -6.8800     0.4960     1.4930 ha         1 F1K       0.149500
     24 H20         -2.6950     1.5040    -0.9350 ha         1 F1K       0.139500
     25 H12          6.6850     0.6870     1.2810 h1         1 F1K       0.062200
     26 H12A         7.0920     0.0660    -0.3220 h1         1 F1K       0.062200
     27 H11          4.5650     1.6530     0.3540 hc         1 F1K       0.059200
     28 H11A         4.9790     1.0210    -1.2360 hc         1 F1K       0.059200
     29 H10          4.9870    -1.3060    -0.2850 h1         1 F1K       0.051700
     30 H10A         4.5140    -0.6550     1.2780 h1         1 F1K       0.051700
     31 H4           0.0200    -1.4440     1.5820 h1         1 F1K       0.048700
     32 H4A          0.3640     0.2090     1.0430 h1         1 F1K       0.048700
     33 H5           0.7970    -0.5460    -1.2230 h1         1 F1K       0.030700
     34 H2          -2.9950    -1.6290    -0.5500 h1         1 F1K       0.046200
     35 H2A         -2.0510    -2.5520     0.6260 h1         1 F1K       0.046200
     36 H1          -1.5510    -3.3330    -1.6250 h1         1 F1K       0.039200
     37 H1A         -1.2130    -1.6890    -2.1780 h1         1 F1K       0.039200
     38 H21         -4.8570     2.3410    -1.7990 ha         1 F1K       0.149500
     39 H18         -1.6710     0.9230     1.7020 h1         1 F1K       0.041200
     40 H18A        -2.3960    -0.6080     2.1710 h1         1 F1K       0.041200
     41 HN6          0.7800    -2.9500    -1.6140 hn         1 F1K       0.365800
     42 HN8          2.7230     0.2580    -0.7810 hn         1 F1K       0.314500
     43 HS13         8.5220     2.2350     0.1740 hs         1 F1K       0.216800
@<TRIPOS>BOND
     1     1     2 ar  
     2     1    15 ar  
     3     1    22 1   
     4     2     3 ar  
     5     2    23 1   
     6     3    13 1   
     7     3    14 ar  
     8     4    14 ar  
     9     4    15 ar  
    10     4    24 1   
    11     5     6 1   
    12     5    21 1   
    13     5    25 1   
    14     5    26 1   
    15     6     7 1   
    16     6    27 1   
    17     6    28 1   
    18     7    20 1   
    19     7    29 1   
    20     7    30 1   
    21     8    10 1   
    22     8    19 2   
    23     8    20 1   
    24     9    10 1   
    25     9    17 1   
    26     9    31 1   
    27     9    32 1   
    28    10    18 1   
    29    10    33 1   
    30    11    12 1   
    31    11    17 1   
    32    11    34 1   
    33    11    35 1   
    34    12    18 1   
    35    12    36 1   
    36    12    37 1   
    37    14    38 1   
    38    15    16 1   
    39    16    17 1   
    40    16    39 1   
    41    16    40 1   
    42    18    41 1   
    43    20    42 1   
    44    21    43 1   
@<TRIPOS>SUBSTRUCTURE
     1 F1K         1 TEMP              0 ****  ****    0 ROOT
