@<TRIPOS>MOLECULE
F1K
   43    44     1     0     0
SMALL
No Charge or Current Charge


@<TRIPOS>ATOM
      1 C24         -4.5880     0.2410     1.3990 ca         1 F1K      -0.072500
      2 C23         -5.9350     0.4420     1.0470 ca         1 F1K      -0.155500
      3 C22         -6.2560     1.1720    -0.1070 ca         1 F1K       0.171000
      4 C20         -3.8910     1.5040    -0.5640 ca         1 F1K      -0.072500
      5 C12          6.6020     0.6690     0.3570 c3         1 F1K       0.086600
      6 C11          5.1070     0.5450     0.0090 c3         1 F1K      -0.088400
      7 C10          4.3750    -0.4900     0.8860 c3         1 F1K       0.106000
      8 C7           2.4350    -1.2680    -0.5340 c          1 F1K       0.591100
      9 C4           0.0980    -0.3740     0.2940 c6         1 F1K       0.172800
     10 C5           0.8770    -1.2440    -0.7550 c6         1 F1K       0.095500
     11 C2          -1.9410    -1.6930    -0.0850 c6         1 F1K       0.160800
     12 C1          -1.1840    -2.5770    -1.1270 c6         1 F1K       0.157800
     13 F25         -7.5500     1.3640    -0.4440 f          1 F1K      -0.180000
     14 C21         -5.2380     1.7040    -0.9140 ca         1 F1K      -0.155500
     15 C19         -3.5590     0.7720     0.5940 ca         1 F1K      -0.104300
     16 C18         -2.0950     0.5560     0.9680 c3         1 F1K       0.220100
     17 N3          -1.3690    -0.3110     0.0100 n3         1 F1K      -0.729600
     18 N6           0.2810    -2.6290    -0.8660 n7         1 F1K      -0.842400
     19 O9           3.1740    -1.8800    -1.2980 o          1 F1K      -0.576100
     20 N8           2.9500    -0.5850     0.5570 ns         1 F1K      -0.514900
     21 S13          7.4890     1.9150    -0.6880 sh         1 F1K      -0.456800
     22 H24         -4.3450    -0.3280     2.2940 ha         1 F1K       0.121500
     23 H23         -6.7290     0.0320     1.6670 ha         1 F1K       0.131500
     24 H20         -3.1020     1.9120    -1.1930 ha         1 F1K       0.121500
     25 H12          6.7090     0.9630     1.4100 h1         1 F1K       0.062200
     26 H12A         7.0910    -0.3050     0.2250 h1         1 F1K       0.062200
     27 H11          4.6280     1.5240     0.1290 hc         1 F1K       0.059200
     28 H11A         5.0100     0.2640    -1.0470 hc         1 F1K       0.059200
     29 H10          4.8390    -1.4780     0.7610 h1         1 F1K       0.051700
     30 H10A         4.4690    -0.2050     1.9420 h1         1 F1K       0.051700
     31 H4           0.2670    -0.7910     1.2980 h1         1 F1K       0.048700
     32 H4A          0.5170     0.6440     0.2880 h1         1 F1K       0.048700
     33 H5           0.7470    -0.7480    -1.7290 h1         1 F1K       0.030700
     34 H2          -3.0010    -1.6550    -0.3750 h1         1 F1K       0.046200
     35 H2A         -1.8960    -2.1900     0.8950 h1         1 F1K       0.046200
     36 H1          -1.5980    -3.5960    -1.1130 h1         1 F1K       0.039200
     37 H1A         -1.3570    -2.1650    -2.1320 h1         1 F1K       0.039200
     38 H21         -5.4940     2.2670    -1.8080 ha         1 F1K       0.131500
     39 H18         -1.6130     1.5420     1.0130 h1         1 F1K       0.041200
     40 H18A        -2.0390     0.1300     1.9790 h1         1 F1K       0.041200
     41 HN6          0.7460    -3.1330    -1.6340 hn         1 F1K       0.421000
     42 HN8          2.2900    -0.1150     1.1640 hn         1 F1K       0.314500
     43 HS13         8.7080     1.7470    -0.1170 hs         1 F1K       0.216800
@<TRIPOS>BOND
     1     1     2 ar  
     2     1    15 ar  
     3     1    22 1   
     4     2     3 ar  
     5     2    23 1   
     6     3    13 1   
     7     3    14 ar  
     8     4    14 ar  
     9     4    15 ar  
    10     4    24 1   
    11     5     6 1   
    12     5    21 1   
    13     5    25 1   
    14     5    26 1   
    15     6     7 1   
    16     6    27 1   
    17     6    28 1   
    18     7    20 1   
    19     7    29 1   
    20     7    30 1   
    21     8    10 1   
    22     8    19 2   
    23     8    20 1   
    24     9    10 1   
    25     9    17 1   
    26     9    31 1   
    27     9    32 1   
    28    10    18 1   
    29    10    33 1   
    30    11    12 1   
    31    11    17 1   
    32    11    34 1   
    33    11    35 1   
    34    12    18 1   
    35    12    36 1   
    36    12    37 1   
    37    14    38 1   
    38    15    16 1   
    39    16    17 1   
    40    16    39 1   
    41    16    40 1   
    42    18    41 1   
    43    20    42 1   
    44    21    43 1   
@<TRIPOS>SUBSTRUCTURE
     1 F1K         1 TEMP              0 ****  ****    0 ROOT
