@<TRIPOS>MOLECULE
F1L
   52    53     1     0     0
SMALL
No Charge or Current Charge


@<TRIPOS>ATOM
      1 C28         -5.8650    -1.4680    -2.9010 c3         1 F1L       0.144900
      2 C26         -1.9870    -3.2040    -1.4900 c3         1 F1L       0.151900
      3 C24         -3.2940    -1.6410    -0.1650 ca         1 F1L       0.107100
      4 C23         -4.3120    -1.1190    -1.0030 ca         1 F1L       0.117100
      5 C22         -4.7850     0.1950    -0.7830 ca         1 F1L      -0.170000
      6 C20         -3.2510     0.4450     1.0920 ca         1 F1L      -0.112000
      7 C12          8.2700     0.3660    -1.1670 c3         1 F1L       0.080600
      8 C11          7.0890     0.3780    -0.1780 c3         1 F1L      -0.057400
      9 C10          6.2580    -0.9280    -0.2100 c3         1 F1L      -0.159400
     10 C8           5.0970    -0.8780     0.7880 c          1 F1L       0.600100
     11 C4           0.7100    -2.0650     1.9990 c6         1 F1L       0.169800
     12 C5           2.0820    -2.1110     1.2880 c6         1 F1L      -0.091400
     13 C6           2.5800    -0.6840     0.9590 c6         1 F1L       0.109700
     14 C2           0.1400     0.0410     0.8580 c6         1 F1L       0.169800
     15 C1           1.5000     0.0400     0.1240 c6         1 F1L      -0.091400
     16 C21         -4.2520     0.9660     0.2600 ca         1 F1L       0.011100
     17 O27         -4.8300    -1.9190    -2.0090 os         1 F1L      -0.327100
     18 C19         -2.7620    -0.8600     0.8860 ca         1 F1L      -0.067300
     19 C18         -1.6570    -1.4040     1.7900 c3         1 F1L       0.222100
     20 N3          -0.3020    -1.3450     1.1820 n3         1 F1L      -0.728600
     21 O9           5.2600    -0.9870     1.9940 o          1 F1L      -0.599100
     22 S13          9.2630     1.9280    -1.1310 sh         1 F1L      -0.448800
     23 H28         -5.5350    -0.5890    -3.4700 h1         1 F1L       0.043367
     24 H28A        -6.1200    -2.2590    -3.6170 h1         1 F1L       0.043367
     25 H28B        -6.7750    -1.2080    -2.3450 h1         1 F1L       0.043367
     26 H26         -2.5160    -3.0060    -2.4300 h1         1 F1L       0.040033
     27 H26A        -1.0820    -2.5820    -1.4650 h1         1 F1L       0.040033
     28 H26B        -1.6780    -4.2570    -1.4860 h1         1 F1L       0.040033
     29 H22         -5.5630     0.6280    -1.4040 ha         1 F1L       0.133000
     30 H20         -2.8470     1.0580     1.8950 ha         1 F1L       0.131000
     31 H12          8.9380    -0.4730    -0.9290 h1         1 F1L       0.054700
     32 H12A         7.8920     0.2210    -2.1870 h1         1 F1L       0.054700
     33 H11          7.4750     0.5400     0.8360 hc         1 F1L       0.072200
     34 H11A         6.4370     1.2300    -0.4110 hc         1 F1L       0.072200
     35 H10          5.8740    -1.0710    -1.2270 hc         1 F1L       0.055200
     36 H10A         6.9150    -1.7640     0.0590 hc         1 F1L       0.055200
     37 H4           0.3800    -3.0970     2.1910 h1         1 F1L       0.037450
     38 H4A          0.8270    -1.5760     2.9780 h1         1 F1L       0.037450
     39 H5           2.8090    -2.6260     1.9290 hc         1 F1L       0.051700
     40 H5A          1.9960    -2.7030     0.3670 hc         1 F1L       0.051700
     41 H6           2.7340    -0.1300     1.8980 h1         1 F1L       0.079700
     42 H2           0.2250     0.6390     1.7780 h1         1 F1L       0.037450
     43 H2A         -0.5960     0.5420     0.2130 h1         1 F1L       0.037450
     44 H1           1.8110     1.0750    -0.0740 hc         1 F1L       0.051700
     45 H1A          1.3860    -0.4490    -0.8530 hc         1 F1L       0.051700
     46 H18         -1.6650    -0.8480     2.7370 h1         1 F1L       0.046200
     47 H18A        -1.9050    -2.4450     2.0410 h1         1 F1L       0.046200
     48 HN7          3.8200    -0.6570    -0.7850 hn         1 F1L       0.306500
     49 HS13        10.1590     1.5560    -2.0800 hs         1 F1L       0.208800
     50 O25         -2.8210    -2.9240    -0.3540 os         1 F1L      -0.349100
     51 Br29        -4.8970     2.7420     0.5510 br         1 F1L      -0.098100
     52 N7           3.8500    -0.7300     0.2240 ns         1 F1L      -0.507900
@<TRIPOS>BOND
     1     1    17 1   
     2     1    23 1   
     3     1    24 1   
     4     1    25 1   
     5     2    26 1   
     6     2    27 1   
     7     2    28 1   
     8     2    50 1   
     9     3     4 ar  
    10     3    18 ar  
    11     3    50 1   
    12     4     5 ar  
    13     4    17 1   
    14     5    16 ar  
    15     5    29 1   
    16     6    16 ar  
    17     6    18 ar  
    18     6    30 1   
    19     7     8 1   
    20     7    22 1   
    21     7    31 1   
    22     7    32 1   
    23     8     9 1   
    24     8    33 1   
    25     8    34 1   
    26     9    10 1   
    27     9    35 1   
    28     9    36 1   
    29    10    21 2   
    30    10    52 1   
    31    11    12 1   
    32    11    20 1   
    33    11    37 1   
    34    11    38 1   
    35    12    13 1   
    36    12    39 1   
    37    12    40 1   
    38    13    15 1   
    39    13    41 1   
    40    13    52 1   
    41    14    15 1   
    42    14    20 1   
    43    14    42 1   
    44    14    43 1   
    45    15    44 1   
    46    15    45 1   
    47    16    51 1   
    48    18    19 1   
    49    19    20 1   
    50    19    46 1   
    51    19    47 1   
    52    22    49 1   
    53    48    52 1   
@<TRIPOS>SUBSTRUCTURE
     1 F1L         1 TEMP              0 ****  ****    0 ROOT
