@<TRIPOS>MOLECULE
F1L
   52    53     1     0     0
SMALL
bcc


@<TRIPOS>ATOM
      1 C28         -5.4180    -1.3940    -3.0040 c3         1 F1L       0.121700
      2 C26         -1.5770    -2.8520    -1.4040 c3         1 F1L       0.128700
      3 C24         -3.1340    -1.5800    -0.1810 ca         1 F1L       0.107100
      4 C23         -4.1200    -1.0740    -1.0470 ca         1 F1L       0.117100
      5 C22         -4.7090     0.1590    -0.7860 ca         1 F1L      -0.188000
      6 C20         -3.3560     0.3740     1.2090 ca         1 F1L      -0.130000
      7 C12          8.1520     0.1980    -1.3420 c3         1 F1L       0.032700
      8 C11          6.9850     0.5600    -0.4350 c3         1 F1L      -0.057400
      9 C10          5.9650    -0.5680    -0.3910 c3         1 F1L      -0.159400
     10 C8           4.7830    -0.2690     0.5130 c          1 F1L       0.667100
     11 C4           0.5480    -2.2170     2.0290 c6         1 F1L       0.169800
     12 C5           1.8760    -2.3400     1.2990 c6         1 F1L      -0.091400
     13 C6           2.4750    -0.9610     1.0530 c6         1 F1L       0.109700
     14 C2           0.1370    -0.0510     1.0910 c6         1 F1L       0.169800
     15 C1           1.4560    -0.0790     0.3360 c6         1 F1L      -0.091400
     16 C21         -4.3140     0.8630     0.3430 ca         1 F1L       0.011100
     17 O27         -4.4400    -1.8520    -2.0910 os         1 F1L      -0.303900
     18 C19         -2.7520    -0.8550     0.9410 ca         1 F1L      -0.067300
     19 C18         -1.7020    -1.3920     1.8780 c3         1 F1L       0.222100
     20 N3          -0.3810    -1.3910     1.2830 n3         1 F1L      -0.728600
     21 O9           4.8160     0.6050     1.3680 o          1 F1L      -0.599100
     22 S13          9.3490     1.5750    -1.3410 sh         1 F1L      -0.400900
     23 H28         -5.1200    -0.4590    -3.4860 h1         1 F1L       0.043367
     24 H28A        -5.5150    -2.1650    -3.7640 h1         1 F1L       0.043367
     25 H28B        -6.3890    -1.2510    -2.5220 h1         1 F1L       0.043367
     26 H26         -1.8960    -2.4230    -2.3560 h1         1 F1L       0.040033
     27 H26A        -0.6880    -2.3320    -1.0450 h1         1 F1L       0.040033
     28 H26B        -1.3370    -3.9020    -1.5620 h1         1 F1L       0.040033
     29 H22         -5.4660     0.5640    -1.4430 ha         1 F1L       0.151000
     30 H20         -3.0530     0.9300     2.0860 ha         1 F1L       0.149000
     31 H12          8.6450    -0.7080    -0.9890 h1         1 F1L       0.054700
     32 H12A         7.8060     0.0230    -2.3610 h1         1 F1L       0.054700
     33 H11          7.3540     0.7680     0.5710 hc         1 F1L       0.072200
     34 H11A         6.5130     1.4760    -0.7980 hc         1 F1L       0.072200
     35 H10          5.6060    -0.7940    -1.3980 hc         1 F1L       0.055200
     36 H10A         6.4380    -1.4860    -0.0270 hc         1 F1L       0.055200
     37 H4           0.1090    -3.2090     2.1570 h1         1 F1L       0.037450
     38 H4A          0.7280    -1.8170     3.0430 h1         1 F1L       0.037450
     39 H5           2.5620    -2.9510     1.8900 hc         1 F1L       0.051700
     40 H5A          1.7160    -2.8520     0.3450 hc         1 F1L       0.051700
     41 H6           2.7050    -0.5080     2.0210 h1         1 F1L       0.079700
     42 H2           0.2750     0.4680     2.0580 h1         1 F1L       0.037450
     43 H2A         -0.5880     0.5350     0.5240 h1         1 F1L       0.037450
     44 H1           1.8450     0.9370     0.2360 hc         1 F1L       0.051700
     45 H1A          1.2860    -0.4650    -0.6740 hc         1 F1L       0.051700
     46 H18         -1.7330    -0.8100     2.8130 h1         1 F1L       0.046200
     47 H18A        -1.9520    -2.4210     2.1460 h1         1 F1L       0.046200
     48 HN7          3.7460    -1.7170    -0.4520 hn         1 F1L       0.306500
     49 HS13        10.2530     1.0330    -2.1640 hs         1 F1L       0.208800
     50 O25         -2.6100    -2.8070    -0.4240 os         1 F1L      -0.325900
     51 BR29        -5.1180     2.5370     0.6990 br         1 F1L      -0.098100
     52 N7           3.7170    -1.0650     0.3170 ns         1 F1L      -0.574900
@<TRIPOS>BOND
     1     1    17 1   
     2     1    23 1   
     3     1    24 1   
     4     1    25 1   
     5     2    26 1   
     6     2    27 1   
     7     2    28 1   
     8     2    50 1   
     9     3     4 ar  
    10     3    18 ar  
    11     3    50 1   
    12     4     5 ar  
    13     4    17 1   
    14     5    16 ar  
    15     5    29 1   
    16     6    16 ar  
    17     6    18 ar  
    18     6    30 1   
    19     7     8 1   
    20     7    22 1   
    21     7    31 1   
    22     7    32 1   
    23     8     9 1   
    24     8    33 1   
    25     8    34 1   
    26     9    10 1   
    27     9    35 1   
    28     9    36 1   
    29    10    21 2   
    30    10    52 1   
    31    11    12 1   
    32    11    20 1   
    33    11    37 1   
    34    11    38 1   
    35    12    13 1   
    36    12    39 1   
    37    12    40 1   
    38    13    15 1   
    39    13    41 1   
    40    13    52 1   
    41    14    15 1   
    42    14    20 1   
    43    14    42 1   
    44    14    43 1   
    45    15    44 1   
    46    15    45 1   
    47    16    51 1   
    48    18    19 1   
    49    19    20 1   
    50    19    46 1   
    51    19    47 1   
    52    22    49 1   
    53    48    52 1   
@<TRIPOS>SUBSTRUCTURE
     1 F1L         1 TEMP              0 ****  ****    0 ROOT
