@<TRIPOS>MOLECULE
F1M
   67    69     1     0     0
SMALL
No Charge or Current Charge


@<TRIPOS>ATOM
      1 C1          -6.0630     0.6590    -0.3230 ca         1 F1M       0.109100
      2 C2          -7.0220     0.1630    -1.2500 ca         1 F1M       0.114100
      3 C3          -4.5100     0.3110     1.6890 c3         1 F1M       0.222100
      4 C8          -6.0380    -1.5070     0.7990 ca         1 F1M      -0.130000
      5 C11         -6.9970    -1.9880    -0.1000 ca         1 F1M       0.145000
      6 C13         -2.1610     0.9220     2.1080 c6         1 F1M       0.168800
      7 C14         -2.6690    -1.1570     0.8930 c6         1 F1M       0.168800
      8 C16          8.4290     0.0370     0.8100 ca         1 F1M       0.030500
      9 C19         -1.2480    -1.1770     0.2840 c6         1 F1M      -0.091400
     10 C20         -0.2340    -0.4850     1.2210 c6         1 F1M       0.111700
     11 C22          3.5480    -0.3130     0.3750 c3         1 F1M       0.069600
     12 C30         -5.5580     4.3470    -0.4990 c3         1 F1M      -0.104600
     13 C           -5.5550    -0.1890     0.6900 ca         1 F1M      -0.063300
     14 N           -3.1120     0.2320     1.1960 n3         1 F1M      -0.704600
     15 C4           8.5980    -0.0460    -0.5870 ca         1 F1M      -0.317500
     16 C5          -7.4860    -1.1660    -1.1240 ca         1 F1M      -0.186000
     17 O           10.1780     0.5000    -2.6820 o          1 F1M      -0.547500
     18 O6          11.1950     0.5190    -0.3220 o          1 F1M      -0.547500
     19 O9          -5.5840     1.9580    -0.3880 os         1 F1M      -0.342100
     20 N12         10.5990    -1.5730    -1.4230 n8         1 F1M      -1.001100
     21 O15          2.3370    -0.2510     2.5030 o          1 F1M      -0.567100
     22 C17          7.4720    -0.1760    -1.4230 ca         1 F1M       0.030500
     23 C18         -0.7310     0.9470     1.5230 c6         1 F1M      -0.091400
     24 O21          4.7720    -0.1830     1.1350 os         1 F1M      -0.303100
     25 C23          6.0130    -0.1410     0.5330 ca         1 F1M       0.198100
     26 O24         -7.4610     0.9760    -2.2830 os         1 F1M      -0.330100
     27 Cl          -7.5820    -3.6390     0.0470 cl         1 F1M      -0.204000
     28 C25          7.1380    -0.0120     1.3600 ca         1 F1M      -0.196500
     29 C26          6.1830    -0.2240    -0.8650 ca         1 F1M      -0.196500
     30 C28         -8.4240     0.5440    -3.2610 c3         1 F1M       0.144900
     31 C29         -7.2900     3.0940     0.9150 c3         1 F1M      -0.104600
     32 H3          -4.7530     1.3510     1.9480 h1         1 F1M       0.040700
     33 H3A         -4.6080    -0.2640     2.6200 h1         1 F1M       0.040700
     34 H8          -5.6650    -2.1630     1.5820 ha         1 F1M       0.130000
     35 H13         -2.4860     1.9590     2.2830 h1         1 F1M       0.035700
     36 H13A        -2.1410     0.4200     3.0870 h1         1 F1M       0.035700
     37 H14         -3.3530    -1.6340     0.1770 h1         1 F1M       0.035700
     38 H14A        -2.6790    -1.7690     1.8080 h1         1 F1M       0.035700
     39 H16          9.2890     0.1400     1.4720 ha         1 F1M       0.137000
     40 H19         -0.9420    -2.2160     0.1000 hc         1 F1M       0.054700
     41 H19A        -1.2650    -0.6750    -0.6930 hc         1 F1M       0.054700
     42 H20         -0.1760    -1.0530     2.1630 h1         1 F1M       0.076700
     43 H22          3.5510    -1.2440    -0.2050 h1         1 F1M       0.053700
     44 H22A         3.4360     0.5270    -0.3220 h1         1 F1M       0.053700
     45 H27         -7.1390     3.1000    -1.2490 h1         1 F1M       0.045700
     46 H30         -4.9820     4.3210    -1.4320 hc         1 F1M       0.043033
     47 H30A        -6.1620     5.2620    -0.4980 hc         1 F1M       0.043033
     48 H30B        -4.8550     4.3970     0.3410 hc         1 F1M       0.043033
     49 H5          -8.2170    -1.5810    -1.8100 ha         1 F1M       0.133000
     50 HN10         1.1560    -0.5200    -0.4070 hn         1 F1M       0.311500
     51 HN12        11.5000    -1.6000    -0.9520 hn         1 F1M       0.471000
     52 HN1A         9.9590    -1.9900    -0.7520 hn         1 F1M       0.471000
     53 H17          7.5890    -0.2420    -2.5050 ha         1 F1M       0.137000
     54 H18         -0.7220     1.5510     0.6060 hc         1 F1M       0.054700
     55 H18A        -0.0540     1.4410     2.2330 hc         1 F1M       0.054700
     56 H25          7.0080     0.0520     2.4370 ha         1 F1M       0.130000
     57 H26          5.3320    -0.3240    -1.5320 ha         1 F1M       0.130000
     58 H28         -8.0490    -0.3220    -3.8210 h1         1 F1M       0.043367
     59 H28A        -9.3720     0.2730    -2.7810 h1         1 F1M       0.043367
     60 H28B        -8.6240     1.3510    -3.9770 h1         1 F1M       0.043367
     61 H29         -7.9650     2.2310     0.9410 hc         1 F1M       0.043033
     62 H29A        -6.6370     3.0540     1.7950 hc         1 F1M       0.043033
     63 H29B        -7.9030     4.0000     0.9830 hc         1 F1M       0.043033
     64 N10          1.0990    -0.4580     0.6030 ns         1 F1M      -0.507900
     65 C27         -6.4600     3.1040    -0.3880 c3         1 F1M       0.177300
     66 C7           2.2960    -0.3340     1.2810 c          1 F1M       0.603100
     67 S           10.2370     0.0160    -1.3030 sy         1 F1M       1.132600
@<TRIPOS>BOND
     1     1     2 ar  
     2     1    13 ar  
     3     1    19 1   
     4     2    16 ar  
     5     2    26 1   
     6     3    13 1   
     7     3    14 1   
     8     3    32 1   
     9     3    33 1   
    10     4     5 ar  
    11     4    13 ar  
    12     4    34 1   
    13     5    16 ar  
    14     5    27 1   
    15     6    14 1   
    16     6    23 1   
    17     6    35 1   
    18     6    36 1   
    19     7     9 1   
    20     7    14 1   
    21     7    37 1   
    22     7    38 1   
    23     8    15 ar  
    24     8    28 ar  
    25     8    39 1   
    26     9    10 1   
    27     9    40 1   
    28     9    41 1   
    29    10    23 1   
    30    10    42 1   
    31    10    64 1   
    32    11    24 1   
    33    11    43 1   
    34    11    44 1   
    35    11    66 1   
    36    12    46 1   
    37    12    47 1   
    38    12    48 1   
    39    12    65 1   
    40    15    22 ar  
    41    15    67 1   
    42    16    49 1   
    43    17    67 2   
    44    18    67 2   
    45    19    65 1   
    46    20    51 1   
    47    20    52 1   
    48    20    67 1   
    49    21    66 2   
    50    22    29 ar  
    51    22    53 1   
    52    23    54 1   
    53    23    55 1   
    54    24    25 1   
    55    25    28 ar  
    56    25    29 ar  
    57    26    30 1   
    58    28    56 1   
    59    29    57 1   
    60    30    58 1   
    61    30    59 1   
    62    30    60 1   
    63    31    61 1   
    64    31    62 1   
    65    31    63 1   
    66    31    65 1   
    67    45    65 1   
    68    50    64 1   
    69    64    66 1   
@<TRIPOS>SUBSTRUCTURE
     1 F1M         1 TEMP              0 ****  ****    0 ROOT
