@<TRIPOS>MOLECULE
F1M
   67    69     1     0     0
SMALL
bcc


@<TRIPOS>ATOM
      1 C1          -5.9020     0.5600    -0.3090 ca         1 F1M       0.109100
      2 C2          -6.8000     0.1050    -1.2940 ca         1 F1M       0.114100
      3 C3          -4.5070     0.1460     1.7460 c3         1 F1M       0.222100
      4 C8          -6.0890    -1.5610     0.8210 ca         1 F1M      -0.148000
      5 C11         -6.9960    -1.9760    -0.1310 ca         1 F1M       0.053400
      6 C13         -2.2680     0.8940     2.0910 c6         1 F1M       0.168800
      7 C14         -2.6680    -1.1170     0.8480 c6         1 F1M       0.168800
      8 C16          8.0750     0.1840     0.9020 ca         1 F1M       0.012500
      9 C19         -1.2970    -1.0410     0.1950 c6         1 F1M      -0.091400
     10 C20         -0.3160    -0.3170     1.1070 c6         1 F1M       0.111700
     11 C22          3.3660    -0.2270     0.2450 c3         1 F1M       0.046400
     12 C30         -5.5920     4.1210    -0.7990 c3         1 F1M      -0.104600
     13 C           -5.5350    -0.2840     0.7340 ca         1 F1M      -0.063300
     14 N           -3.1690     0.2020     1.1880 n3         1 F1M      -0.704600
     15 C4           8.3090    -0.0340    -0.4510 ca         1 F1M      -0.317500
     16 C5          -7.3570    -1.1650    -1.1970 ca         1 F1M      -0.204000
     17 O            9.9720     0.4810    -2.4310 o          1 F1M      -0.618300
     18 O6          10.8210     0.5640    -0.0800 o          1 F1M      -0.618300
     19 O9          -5.3630     1.7970    -0.4090 os         1 F1M      -0.318900
     20 N12         10.2270    -1.6780    -1.2380 n8         1 F1M      -0.890700
     21 O15          2.2380    -0.4140     2.3590 o          1 F1M      -0.567100
     22 C17          7.2520    -0.2340    -1.3260 ca         1 F1M       0.012500
     23 C18         -0.8820     1.0480     1.4840 c6         1 F1M      -0.091400
     24 O21          4.4880     0.0130     1.0570 os         1 F1M      -0.279900
     25 C23          5.7070    -0.0110     0.5030 ca         1 F1M       0.198100
     26 O24         -7.0510     0.9540    -2.3030 os         1 F1M      -0.306900
     27 CL          -7.6940    -3.5610    -0.0160 cl         1 F1M      -0.112400
     28 C25          6.7790     0.1930     1.3760 ca         1 F1M      -0.214500
     29 C26          5.9500    -0.2210    -0.8550 ca         1 F1M      -0.214500
     30 C28         -7.9510     0.5560    -3.3180 c3         1 F1M       0.121700
     31 C29         -6.4570     3.1070     1.3370 c3         1 F1M      -0.104600
     32 H3          -4.7530     1.1380     2.1270 h1         1 F1M       0.040700
     33 H3A         -4.5570    -0.5390     2.6090 h1         1 F1M       0.040700
     34 H8          -5.8000    -2.2150     1.6330 ha         1 F1M       0.148000
     35 H13         -2.6840     1.8800     2.3090 h1         1 F1M       0.035700
     36 H13A        -2.1780     0.3690     3.0590 h1         1 F1M       0.035700
     37 H14         -3.3640    -1.5990     0.1590 h1         1 F1M       0.035700
     38 H14A        -2.6100    -1.7670     1.7400 h1         1 F1M       0.035700
     39 H16          8.8930     0.3450     1.5910 ha         1 F1M       0.155000
     40 H19         -0.9410    -2.0500    -0.0230 hc         1 F1M       0.054700
     41 H19A        -1.3810    -0.5100    -0.7590 hc         1 F1M       0.054700
     42 H20         -0.1960    -0.9070     2.0190 h1         1 F1M       0.076700
     43 H22          3.4490    -1.1860    -0.2800 h1         1 F1M       0.053700
     44 H22A         3.2440     0.5560    -0.5120 h1         1 F1M       0.053700
     45 H27         -7.2070     2.7340    -0.6260 h1         1 F1M       0.045700
     46 H30         -5.4560     3.9710    -1.8710 hc         1 F1M       0.043033
     47 H30A        -6.2240     4.9980    -0.6630 hc         1 F1M       0.043033
     48 H30B        -4.6200     4.3360    -0.3520 hc         1 F1M       0.043033
     49 H5          -8.0520    -1.5320    -1.9390 ha         1 F1M       0.151000
     50 HN10         1.0130    -0.0430    -0.5130 hn         1 F1M       0.311500
     51 HN12        11.0110    -1.8610    -1.8580 hn         1 F1M       0.415800
     52 HN1A        10.3760    -2.1390    -0.3450 hn         1 F1M       0.415800
     53 H17          7.4250    -0.3950    -2.3810 ha         1 F1M       0.155000
     54 H18         -0.9350     1.6810     0.5940 hc         1 F1M       0.054700
     55 H18A        -0.2240     1.5440     2.2010 hc         1 F1M       0.054700
     56 H25          6.5870     0.3570     2.4280 ha         1 F1M       0.148000
     57 H26          5.1450    -0.3710    -1.5610 ha         1 F1M       0.148000
     58 H28         -7.5960    -0.3280    -3.8530 h1         1 F1M       0.043367
     59 H28A        -8.9490     0.3520    -2.9220 h1         1 F1M       0.043367
     60 H28B        -8.0140     1.3860    -4.0160 h1         1 F1M       0.043367
     61 H29         -6.8860     2.2180     1.8030 hc         1 F1M       0.043033
     62 H29A        -5.5250     3.3530     1.8480 hc         1 F1M       0.043033
     63 H29B        -7.1570     3.9270     1.5000 hc         1 F1M       0.043033
     64 N10          0.9870    -0.2210     0.4800 ns         1 F1M      -0.574900
     65 C27         -6.2370     2.9130    -0.1530 c3         1 F1M       0.154100
     66 C7           2.1450    -0.2820     1.1510 c          1 F1M       0.670100
     67 S            9.9560    -0.0540    -1.0760 sy         1 F1M       1.274200
@<TRIPOS>BOND
     1     1     2 ar  
     2     1    13 ar  
     3     1    19 1   
     4     2    16 ar  
     5     2    26 1   
     6     3    13 1   
     7     3    14 1   
     8     3    32 1   
     9     3    33 1   
    10     4     5 ar  
    11     4    13 ar  
    12     4    34 1   
    13     5    16 ar  
    14     5    27 1   
    15     6    14 1   
    16     6    23 1   
    17     6    35 1   
    18     6    36 1   
    19     7     9 1   
    20     7    14 1   
    21     7    37 1   
    22     7    38 1   
    23     8    15 ar  
    24     8    28 ar  
    25     8    39 1   
    26     9    10 1   
    27     9    40 1   
    28     9    41 1   
    29    10    23 1   
    30    10    42 1   
    31    10    64 1   
    32    11    24 1   
    33    11    43 1   
    34    11    44 1   
    35    11    66 1   
    36    12    46 1   
    37    12    47 1   
    38    12    48 1   
    39    12    65 1   
    40    15    22 ar  
    41    15    67 1   
    42    16    49 1   
    43    17    67 2   
    44    18    67 2   
    45    19    65 1   
    46    20    51 1   
    47    20    52 1   
    48    20    67 1   
    49    21    66 2   
    50    22    29 ar  
    51    22    53 1   
    52    23    54 1   
    53    23    55 1   
    54    24    25 1   
    55    25    28 ar  
    56    25    29 ar  
    57    26    30 1   
    58    28    56 1   
    59    29    57 1   
    60    30    58 1   
    61    30    59 1   
    62    30    60 1   
    63    31    61 1   
    64    31    62 1   
    65    31    63 1   
    66    31    65 1   
    67    45    65 1   
    68    50    64 1   
    69    64    66 1   
@<TRIPOS>SUBSTRUCTURE
     1 F1M         1 TEMP              0 ****  ****    0 ROOT
