@<TRIPOS>MOLECULE
F1N
   70    72     1     0     0
SMALL
bcc


@<TRIPOS>ATOM
      1 C31         -4.7170    -2.5470    -0.4210 c3         1 F1N       0.150100
      2 C28         -7.1620    -0.4090    -1.1190 ca         1 F1N       0.131100
      3 C27         -7.5180     0.9180    -1.3370 ca         1 F1N      -0.208000
      4 C26         -6.9790     1.8990    -0.5180 ca         1 F1N       0.057400
      5 C24         -5.7440     0.2640     0.7290 ca         1 F1N      -0.068300
      6 C23         -4.8590    -0.0680     1.9020 c3         1 F1N       0.217100
      7 C22         -1.3250    -1.2520     2.2550 c6         1 F1N      -0.092400
      8 C17         -0.5880    -0.0480     1.6870 c6         1 F1N       0.112700
      9 C11          6.2350     1.4470     0.2920 ca         1 F1N      -0.119300
     10 C10          7.5290     1.1710    -0.1130 ca         1 F1N      -0.006000
     11 C9           7.8920    -0.1140    -0.5040 ca         1 F1N      -0.315500
     12 C8           6.9660    -1.1430    -0.5030 ca         1 F1N       0.020000
     13 C7           5.6660    -0.8870    -0.1030 ca         1 F1N      -0.246000
     14 C6           5.3000     0.3980     0.2950 ca         1 F1N       0.193100
     15 C3           3.0680    -0.2520     0.7360 c3         1 F1N       0.045400
     16 CL36        -7.4260     3.5530    -0.7940 cl         1 F1N      -0.111400
     17 O34         -7.6570    -1.4380    -1.8210 os         1 F1N      -0.295900
     18 C35         -8.5520    -1.1660    -2.8800 c3         1 F1N       0.119700
     19 C29         -6.2500    -0.7370    -0.0970 ca         1 F1N       0.102100
     20 O30         -5.9590    -2.0420     0.1170 os         1 F1N      -0.337900
     21 C33         -4.4020    -3.8040     0.3610 c3         1 F1N      -0.099100
     22 C32         -4.8120    -2.8080    -1.9130 c3         1 F1N      -0.099100
     23 C25         -6.1170     1.5910     0.5130 ca         1 F1N      -0.150000
     24 N20         -3.4710    -0.2980     1.5460 n3         1 F1N      -0.729600
     25 C21         -2.7370    -0.8640     2.6620 c6         1 F1N       0.169300
     26 C19         -2.8190     0.8860     1.0220 c6         1 F1N       0.169300
     27 C18         -1.4060     0.5700     0.5570 c6         1 F1N      -0.092400
     28 O1           1.7750     1.5380     1.6880 o          1 F1N      -0.564100
     29 O5           4.0670     0.7330     0.6980 os         1 F1N      -0.279900
     30 O15          9.5410    -1.4360    -2.0840 o          1 F1N      -0.616800
     31 O16         10.2150     0.8220    -1.2550 o          1 F1N      -0.616800
     32 N14         10.1340    -1.2420     0.3160 n8         1 F1N      -0.888700
     33 H31         -3.9350    -1.8070    -0.2270 h1         1 F1N       0.065700
     34 H27         -8.2060     1.1920    -2.1250 ha         1 F1N       0.152000
     35 H23         -4.9550     0.7380     2.6480 h1         1 F1N       0.047200
     36 H23A        -5.2350    -0.9770     2.3790 h1         1 F1N       0.047200
     37 H22         -1.3760    -2.0480     1.5030 hc         1 F1N       0.053700
     38 H22A        -0.7920    -1.6500     3.1210 hc         1 F1N       0.053700
     39 H17         -0.4760     0.6940     2.4820 h1         1 F1N       0.078700
     40 H12          5.0210     3.2150     0.0930 hc         1 F1N       0.050700
     41 H12A         5.4680     2.8370     1.7460 hc         1 F1N       0.050700
     42 H12B         6.6670     3.5140     0.6470 hc         1 F1N       0.050700
     43 H10          8.2570     1.9710    -0.1210 ha         1 F1N       0.157000
     44 H8           7.2390    -2.1440    -0.8080 ha         1 F1N       0.153000
     45 H7           4.9540    -1.7000    -0.1130 ha         1 F1N       0.137000
     46 H3           3.3490    -1.0850     1.3920 h1         1 F1N       0.052700
     47 H3A          2.8800    -0.6680    -0.2610 h1         1 F1N       0.052700
     48 H35         -8.0970    -0.5370    -3.6490 h1         1 F1N       0.042700
     49 H35A        -8.8080    -2.1270    -3.3200 h1         1 F1N       0.042700
     50 H35B        -9.4690    -0.6850    -2.5280 h1         1 F1N       0.042700
     51 H33         -5.1760    -4.5620     0.2250 hc         1 F1N       0.040367
     52 H33A        -3.4570    -4.2290     0.0220 hc         1 F1N       0.040367
     53 H33B        -4.3080    -3.5930     1.4270 hc         1 F1N       0.040367
     54 H32         -3.8540    -3.1890    -2.2710 hc         1 F1N       0.040367
     55 H32A        -5.5800    -3.5470    -2.1440 hc         1 F1N       0.040367
     56 H32B        -5.0280    -1.8990    -2.4750 hc         1 F1N       0.040367
     57 H25         -5.7340     2.3700     1.1600 ha         1 F1N       0.148000
     58 H21         -3.2670    -1.7510     3.0140 h1         1 F1N       0.038700
     59 H21A        -2.6920    -0.1610     3.5140 h1         1 F1N       0.038700
     60 H19         -3.3940     1.2670     0.1760 h1         1 F1N       0.038700
     61 H19A        -2.7900     1.6960     1.7740 h1         1 F1N       0.038700
     62 H18         -0.9260     1.4850     0.2030 hc         1 F1N       0.053700
     63 H18A        -1.4460    -0.1270    -0.2850 hc         1 F1N       0.053700
     64 HN4          0.8450    -1.3390     0.8280 hn         1 F1N       0.309500
     65 HN14        11.0160    -1.7010     0.1080 hn         1 F1N       0.414300
     66 HN1A        10.2450    -0.6280     1.1170 hn         1 F1N       0.414300
     67 N4           0.7420    -0.4300     1.2540 ns         1 F1N      -0.576900
     68 C2           1.7990     0.3950     1.2710 c          1 F1N       0.671100
     69 S13          9.5440    -0.4500    -1.0120 sy         1 F1N       1.271200
     70 C12          5.8270     2.8250     0.7170 c3         1 F1N      -0.038800
@<TRIPOS>BOND
     1     1    20 1   
     2     1    21 1   
     3     1    22 1   
     4     1    33 1   
     5     2     3 ar  
     6     2    17 1   
     7     2    19 ar  
     8     3     4 ar  
     9     3    34 1   
    10     4    16 1   
    11     4    23 ar  
    12     5     6 1   
    13     5    19 ar  
    14     5    23 ar  
    15     6    24 1   
    16     6    35 1   
    17     6    36 1   
    18     7     8 1   
    19     7    25 1   
    20     7    37 1   
    21     7    38 1   
    22     8    27 1   
    23     8    39 1   
    24     8    67 1   
    25     9    10 ar  
    26     9    14 ar  
    27     9    70 1   
    28    10    11 ar  
    29    10    43 1   
    30    11    12 ar  
    31    11    69 1   
    32    12    13 ar  
    33    12    44 1   
    34    13    14 ar  
    35    13    45 1   
    36    14    29 1   
    37    15    29 1   
    38    15    46 1   
    39    15    47 1   
    40    15    68 1   
    41    17    18 1   
    42    18    48 1   
    43    18    49 1   
    44    18    50 1   
    45    19    20 1   
    46    21    51 1   
    47    21    52 1   
    48    21    53 1   
    49    22    54 1   
    50    22    55 1   
    51    22    56 1   
    52    23    57 1   
    53    24    25 1   
    54    24    26 1   
    55    25    58 1   
    56    25    59 1   
    57    26    27 1   
    58    26    60 1   
    59    26    61 1   
    60    27    62 1   
    61    27    63 1   
    62    28    68 2   
    63    30    69 2   
    64    31    69 2   
    65    32    65 1   
    66    32    66 1   
    67    32    69 1   
    68    40    70 1   
    69    41    70 1   
    70    42    70 1   
    71    64    67 1   
    72    67    68 1   
@<TRIPOS>SUBSTRUCTURE
     1 F1N         1 TEMP              0 ****  ****    0 ROOT
