@<TRIPOS>MOLECULE
F1N
   70    72     1     0     0
SMALL
No Charge or Current Charge


@<TRIPOS>ATOM
      1 C31         -5.0390    -2.7620    -0.3190 c3         1 F1N       0.173300
      2 C28         -7.2880    -0.3510    -1.1860 ca         1 F1N       0.131100
      3 C27         -7.4900     1.0250    -1.4310 ca         1 F1N      -0.190000
      4 C26         -6.8600     1.9790    -0.6220 ca         1 F1N       0.149000
      5 C24         -5.8050     0.2120     0.6920 ca         1 F1N      -0.068300
      6 C23         -4.9380    -0.1870     1.8890 c3         1 F1N       0.217100
      7 C22         -1.3010    -1.3240     2.3030 c6         1 F1N      -0.092400
      8 C17         -0.5630    -0.0620     1.8040 c6         1 F1N       0.112700
      9 C11          6.5060     1.4990     0.2560 ca         1 F1N      -0.119300
     10 C10          7.8120     1.1920    -0.1750 ca         1 F1N       0.012000
     11 C9           8.1400    -0.1210    -0.5710 ca         1 F1N      -0.315500
     12 C8           7.1600    -1.1290    -0.5390 ca         1 F1N       0.038000
     13 C7           5.8580    -0.8270    -0.1100 ca         1 F1N      -0.228000
     14 C6           5.5240     0.4860     0.2880 ca         1 F1N       0.193100
     15 C3           3.1770    -0.1480     0.7820 c3         1 F1N       0.068600
     16 Cl36        -7.1240     3.6910    -0.9250 cl         1 F1N      -0.203000
     17 O34         -7.9110    -1.3240    -1.9510 os         1 F1N      -0.319100
     18 C35         -8.7820    -1.0050    -3.0500 c3         1 F1N       0.142900
     19 C29         -6.4290    -0.7560    -0.1330 ca         1 F1N       0.102100
     20 O30         -6.2460    -2.1040     0.1120 os         1 F1N      -0.361100
     21 C33         -4.9480    -4.0880     0.4580 c3         1 F1N      -0.099100
     22 C32         -5.1020    -2.9710    -1.8470 c3         1 F1N      -0.099100
     23 C25         -6.0340     1.5800     0.4370 ca         1 F1N      -0.132000
     24 N20         -3.5000    -0.3780     1.5720 n3         1 F1N      -0.729600
     25 C21         -2.7550    -0.9890     2.7040 c6         1 F1N       0.169300
     26 C19         -2.8270     0.8510     1.0690 c6         1 F1N       0.169300
     27 C18         -1.3710     0.5590     0.6410 c6         1 F1N      -0.092400
     28 O1           1.7400     1.6570     1.6010 o          1 F1N      -0.564100
     29 O5           4.2520     0.8180     0.7150 os         1 F1N      -0.303100
     30 O15          9.7890    -1.6840    -1.9960 o          1 F1N      -0.546000
     31 O16         10.5240     0.7150    -1.4380 o          1 F1N      -0.546000
     32 N14         10.4890    -1.0230     0.2720 n8         1 F1N      -0.999100
     33 H31         -4.1530    -2.1620    -0.0850 h1         1 F1N       0.065700
     34 H27         -8.1330     1.3720    -2.2340 ha         1 F1N       0.134000
     35 H23         -5.0460     0.5780     2.6710 h1         1 F1N       0.047200
     36 H23A        -5.3490    -1.1140     2.3120 h1         1 F1N       0.047200
     37 H22         -1.3080    -2.0950     1.5200 hc         1 F1N       0.053700
     38 H22A        -0.7720    -1.7530     3.1650 hc         1 F1N       0.053700
     39 H17         -0.5020     0.6640     2.6290 h1         1 F1N       0.078700
     40 H12          5.3640     3.3380     0.0570 hc         1 F1N       0.050700
     41 H12A         5.8210     2.9500     1.7230 hc         1 F1N       0.050700
     42 H12B         7.0260     3.5960     0.6020 hc         1 F1N       0.050700
     43 H10          8.5670     1.9770    -0.2010 ha         1 F1N       0.139000
     44 H8           7.4020    -2.1480    -0.8420 ha         1 F1N       0.135000
     45 H7           5.1230    -1.6260    -0.0950 ha         1 F1N       0.119000
     46 H3           3.4360    -0.9680     1.4630 h1         1 F1N       0.052700
     47 H3A          2.9790    -0.5750    -0.2090 h1         1 F1N       0.052700
     48 H35         -8.2470    -0.4320    -3.8180 h1         1 F1N       0.042700
     49 H35A        -9.1590    -1.9250    -3.5130 h1         1 F1N       0.042700
     50 H35B        -9.6440    -0.4190    -2.7080 h1         1 F1N       0.042700
     51 H33         -5.8190    -4.7230     0.2530 hc         1 F1N       0.040367
     52 H33A        -4.0440    -4.6390     0.1730 hc         1 F1N       0.040367
     53 H33B        -4.9020    -3.8960     1.5370 hc         1 F1N       0.040367
     54 H32         -4.2290    -3.5360    -2.1910 hc         1 F1N       0.040367
     55 H32A        -6.0040    -3.5260    -2.1290 hc         1 F1N       0.040367
     56 H32B        -5.1050    -2.0070    -2.3700 hc         1 F1N       0.040367
     57 H25         -5.5710     2.3370     1.0650 ha         1 F1N       0.130000
     58 H21         -3.2500    -1.9160     3.0290 h1         1 F1N       0.038700
     59 H21A        -2.7450    -0.3070     3.5670 h1         1 F1N       0.038700
     60 H19         -3.3600     1.2570     0.1980 h1         1 F1N       0.038700
     61 H19A        -2.8270     1.6320     1.8440 h1         1 F1N       0.038700
     62 H18         -0.8950     1.4900     0.3050 hc         1 F1N       0.053700
     63 H18A        -1.3740    -0.1220    -0.2210 hc         1 F1N       0.053700
     64 HN4          0.9840    -1.3600     1.0940 hn         1 F1N       0.309500
     65 HN14        11.3200    -0.4380     0.3010 hn         1 F1N       0.469500
     66 HN1A         9.8780    -0.6180     0.9760 hn         1 F1N       0.469500
     67 N4           0.7990    -0.4030     1.3710 ns         1 F1N      -0.509900
     68 C2           1.8590     0.4780     1.2890 c          1 F1N       0.604100
     69 S13          9.7990    -0.5120    -1.1190 sy         1 F1N       1.129600
     70 C12          6.1630     2.9230     0.6820 c3         1 F1N      -0.038800
@<TRIPOS>BOND
     1     1    20 1   
     2     1    21 1   
     3     1    22 1   
     4     1    33 1   
     5     2     3 ar  
     6     2    17 1   
     7     2    19 ar  
     8     3     4 ar  
     9     3    34 1   
    10     4    16 1   
    11     4    23 ar  
    12     5     6 1   
    13     5    19 ar  
    14     5    23 ar  
    15     6    24 1   
    16     6    35 1   
    17     6    36 1   
    18     7     8 1   
    19     7    25 1   
    20     7    37 1   
    21     7    38 1   
    22     8    27 1   
    23     8    39 1   
    24     8    67 1   
    25     9    10 ar  
    26     9    14 ar  
    27     9    70 1   
    28    10    11 ar  
    29    10    43 1   
    30    11    12 ar  
    31    11    69 1   
    32    12    13 ar  
    33    12    44 1   
    34    13    14 ar  
    35    13    45 1   
    36    14    29 1   
    37    15    29 1   
    38    15    46 1   
    39    15    47 1   
    40    15    68 1   
    41    17    18 1   
    42    18    48 1   
    43    18    49 1   
    44    18    50 1   
    45    19    20 1   
    46    21    51 1   
    47    21    52 1   
    48    21    53 1   
    49    22    54 1   
    50    22    55 1   
    51    22    56 1   
    52    23    57 1   
    53    24    25 1   
    54    24    26 1   
    55    25    58 1   
    56    25    59 1   
    57    26    27 1   
    58    26    60 1   
    59    26    61 1   
    60    27    62 1   
    61    27    63 1   
    62    28    68 2   
    63    30    69 2   
    64    31    69 2   
    65    32    65 1   
    66    32    66 1   
    67    32    69 1   
    68    40    70 1   
    69    41    70 1   
    70    42    70 1   
    71    64    67 1   
    72    67    68 1   
@<TRIPOS>SUBSTRUCTURE
     1 F1N         1 TEMP              0 ****  ****    0 ROOT
