@<TRIPOS>MOLECULE
F1Q
   43    44     1     0     0
SMALL
bcc


@<TRIPOS>ATOM
      1 N1          -0.3650     0.6690     1.9940 n          1 F1Q      -0.481800
      2 C5          -1.4100     1.6240     1.6420 c3         1 F1Q       0.161300
      3 C4           0.9380     0.9540     1.6960 c          1 F1Q       0.785100
      4 N3          -0.0120    -1.7000     0.1090 na         1 F1Q      -0.154400
      5 C2           3.3100     0.0360     0.0620 c          1 F1Q       0.645100
      6 C10         -4.2230     0.3370    -0.5670 ca         1 F1Q      -0.193500
      7 C13         -0.9150    -1.5600     1.0810 cc         1 F1Q       0.349800
      8 C12         -0.8170    -0.6730     2.2830 c3         1 F1Q       0.074700
      9 C11         -3.5130     0.7940     0.5320 ca         1 F1Q      -0.070000
     10 O2           1.2850     1.9980     1.1590 o          1 F1Q      -0.622100
     11 N            1.8570    -0.0030     2.0050 ns         1 F1Q      -0.602900
     12 C3           3.2080     0.1650     1.5690 c3         1 F1Q       0.057000
     13 O1           2.4630    -0.4830    -0.6310 o          1 F1Q      -0.572000
     14 O            4.4380     0.5210    -0.3960 os         1 F1Q      -0.409900
     15 C1           4.7110     0.4150    -1.8080 c3         1 F1Q       0.145400
     16 C            6.0300     1.0970    -2.0730 c3         1 F1Q      -0.099100
     17 N6          -1.9130    -2.3650     0.8060 nd         1 F1Q      -0.391000
     18 N5          -1.5980    -2.9740    -0.3360 nd         1 F1Q      -0.063000
     19 N4          -0.4650    -2.5800    -0.7660 nc         1 F1Q      -0.201800
     20 C6          -2.1900     1.2030     0.4250 ca         1 F1Q      -0.184300
     21 C9          -3.6170     0.2620    -1.8230 ca         1 F1Q       0.167600
     22 N2          -4.3240    -0.1530    -2.9320 nv         1 F1Q      -0.819200
     23 C8          -2.2830     0.6790    -1.9360 ca         1 F1Q      -0.193500
     24 C7          -1.5910     1.1410    -0.8330 ca         1 F1Q      -0.070000
     25 H1          -2.0860     1.7140     2.4960 h1         1 F1Q       0.068700
     26 H2          -0.9440     2.5960     1.5000 h1         1 F1Q       0.068700
     27 H4          -5.2530     0.0220    -0.4470 ha         1 F1Q       0.133500
     28 H5          -0.2010    -1.1500     3.0480 h1         1 F1Q       0.076700
     29 H6          -1.8110    -0.6170     2.7260 h1         1 F1Q       0.076700
     30 H7          -4.0030     0.8190     1.4990 ha         1 F1Q       0.131000
     31 H8           1.6530    -0.7800     2.6080 hn         1 F1Q       0.329500
     32 H9           3.8110    -0.6300     2.0110 h1         1 F1Q       0.084200
     33 H10          3.6470     1.1100     1.8920 h1         1 F1Q       0.084200
     34 H11          4.7490    -0.6390    -2.0880 h1         1 F1Q       0.054700
     35 H12          3.9040     0.8880    -2.3690 h1         1 F1Q       0.054700
     36 H13          6.2570     1.0250    -3.1360 hc         1 F1Q       0.050033
     37 H14          5.9950     2.1550    -1.8110 hc         1 F1Q       0.050033
     38 H15          6.8450     0.6270    -1.5240 hc         1 F1Q       0.050033
     39 H16         -3.7710    -0.5270    -3.6870 hn         1 F1Q       0.394300
     40 H17         -5.1270    -0.7330    -2.7420 hn         1 F1Q       0.394300
     41 H18         -1.7890     0.6390    -2.9000 ha         1 F1Q       0.133500
     42 H19         -0.5590     1.4490    -0.9570 ha         1 F1Q       0.131000
     43 H3           0.8970    -1.2460    -0.0460 hn         1 F1Q       0.376700
@<TRIPOS>BOND
     1     1     2 1   
     2     1     3 1   
     3     1     8 1   
     4     2    20 1   
     5     2    25 1   
     6     2    26 1   
     7     3    10 2   
     8     3    11 1   
     9     4     7 1   
    10     4    19 1   
    11     4    43 1   
    12     5    12 1   
    13     5    13 2   
    14     5    14 1   
    15     6     9 ar  
    16     6    21 ar  
    17     6    27 1   
    18     7     8 1   
    19     7    17 2   
    20     8    28 1   
    21     8    29 1   
    22     9    20 ar  
    23     9    30 1   
    24    11    12 1   
    25    11    31 1   
    26    12    32 1   
    27    12    33 1   
    28    14    15 1   
    29    15    16 1   
    30    15    34 1   
    31    15    35 1   
    32    16    36 1   
    33    16    37 1   
    34    16    38 1   
    35    17    18 1   
    36    18    19 2   
    37    20    24 ar  
    38    21    22 1   
    39    21    23 ar  
    40    22    39 1   
    41    22    40 1   
    42    23    24 ar  
    43    23    41 1   
    44    24    42 1   
@<TRIPOS>SUBSTRUCTURE
     1 F1Q         1 TEMP              0 ****  ****    0 ROOT
