@<TRIPOS>MOLECULE
F1Q
   43    44     1     0     0
SMALL
No Charge or Current Charge


@<TRIPOS>ATOM
      1 N1          -0.4720     0.6720     2.0560 n          1 F1Q      -0.414800
      2 C5          -1.6640     1.5120     1.8010 c3         1 F1Q       0.161300
      3 C4           0.8170     1.1680     1.7830 c          1 F1Q       0.651100
      4 N3          -0.0760    -1.6510     0.0850 na         1 F1Q      -0.204700
      5 C2           3.3620     0.1680     0.0070 c          1 F1Q       0.596100
      6 C10         -4.2150     0.0350    -0.6550 ca         1 F1Q      -0.175500
      7 C13         -0.8420    -1.6720     1.2180 cc         1 F1Q       0.349800
      8 C12         -0.7290    -0.7530     2.4190 c3         1 F1Q       0.074700
      9 C11         -3.5810     0.4070     0.5430 ca         1 F1Q      -0.052000
     10 O2           1.0120     2.2910     1.3480 o          1 F1Q      -0.622100
     11 N            1.8570     0.2970     1.9950 ns         1 F1Q      -0.535900
     12 C3           3.2360     0.5290     1.5040 c3         1 F1Q       0.057000
     13 O1           2.4660    -0.3570    -0.6500 o          1 F1Q      -0.523000
     14 O            4.5990     0.4840    -0.4890 os         1 F1Q      -0.433100
     15 C1           4.8620     0.1980    -1.8730 c3         1 F1Q       0.168600
     16 C            6.3020     0.6470    -2.1700 c3         1 F1Q      -0.099100
     17 N6          -1.7020    -2.6600     1.0750 nd         1 F1Q      -0.391000
     18 N5          -1.4550    -3.2220    -0.1550 nd         1 F1Q      -0.063000
     19 N4          -0.4710    -2.6260    -0.7710 nc         1 F1Q      -0.201800
     20 C6          -2.3730     1.1310     0.5080 ca         1 F1Q      -0.184300
     21 C9          -3.6490     0.3800    -1.8900 ca         1 F1Q       0.306000
     22 N2          -4.2690     0.0170    -3.0540 nv         1 F1Q      -1.068000
     23 C8          -2.4470     1.1020    -1.9290 ca         1 F1Q      -0.175500
     24 C7          -1.8090     1.4770    -0.7350 ca         1 F1Q      -0.052000
     25 H1          -2.3570     1.4050     2.6470 h1         1 F1Q       0.068700
     26 H2          -1.3860     2.5730     1.7630 h1         1 F1Q       0.068700
     27 H4          -5.1450    -0.5250    -0.6180 ha         1 F1Q       0.115500
     28 H5           0.0470    -1.1290     3.0960 h1         1 F1Q       0.076700
     29 H6          -1.6730    -0.8080     2.9760 h1         1 F1Q       0.076700
     30 H7          -4.0260     0.1250     1.4960 ha         1 F1Q       0.113000
     31 H8           1.6380    -0.5960     2.4160 hn         1 F1Q       0.329500
     32 H9           3.9450    -0.0910     2.0660 h1         1 F1Q       0.084200
     33 H10          3.5170     1.5820     1.6310 h1         1 F1Q       0.084200
     34 H11          4.7630    -0.8770    -2.0780 h1         1 F1Q       0.054700
     35 H12          4.1660     0.7430    -2.5260 h1         1 F1Q       0.054700
     36 H13          6.5520     0.4490    -3.2190 hc         1 F1Q       0.050033
     37 H14          6.4170     1.7210    -1.9860 hc         1 F1Q       0.050033
     38 H15          7.0140     0.1030    -1.5380 hc         1 F1Q       0.050033
     39 H16         -3.7810     0.1310    -3.9410 hn         1 F1Q       0.449500
     40 H17         -5.0500    -0.6350    -3.0290 hn         1 F1Q       0.449500
     41 H18         -2.0040     1.3730    -2.8830 ha         1 F1Q       0.115500
     42 H19         -0.8740     2.0330    -0.7760 ha         1 F1Q       0.113000
     43 H3           0.6950    -1.0220    -0.1330 hn         1 F1Q       0.427000
@<TRIPOS>BOND
     1     1     2 1   
     2     1     3 1   
     3     1     8 1   
     4     2    20 1   
     5     2    25 1   
     6     2    26 1   
     7     3    10 2   
     8     3    11 1   
     9     4     7 1   
    10     4    19 1   
    11     4    43 1   
    12     5    12 1   
    13     5    13 2   
    14     5    14 1   
    15     6     9 ar  
    16     6    21 ar  
    17     6    27 1   
    18     7     8 1   
    19     7    17 2   
    20     8    28 1   
    21     8    29 1   
    22     9    20 ar  
    23     9    30 1   
    24    11    12 1   
    25    11    31 1   
    26    12    32 1   
    27    12    33 1   
    28    14    15 1   
    29    15    16 1   
    30    15    34 1   
    31    15    35 1   
    32    16    36 1   
    33    16    37 1   
    34    16    38 1   
    35    17    18 1   
    36    18    19 2   
    37    20    24 ar  
    38    21    22 1   
    39    21    23 ar  
    40    22    39 1   
    41    22    40 1   
    42    23    24 ar  
    43    23    41 1   
    44    24    42 1   
@<TRIPOS>SUBSTRUCTURE
     1 F1Q         1 TEMP              0 ****  ****    0 ROOT
