@<TRIPOS>MOLECULE
F1R
   54    57     1     0     0
SMALL
abcg2


@<TRIPOS>ATOM
      1 CAI         22.4130   -19.8220    15.3270 ca         1 F1R       0.144000
      2 CAJ         23.2050   -20.6840    16.1180 ca         1 F1R      -0.136000
      3 CAK         22.6630   -21.8480    16.5750 ca         1 F1R      -0.066000
      4 CAL         21.3230   -22.2250    16.2840 ca         1 F1R      -0.153000
      5 CAM         20.5740   -21.3840    15.4030 ca         1 F1R       0.338000
      6 CAN         21.1470   -20.1530    14.9670 ca         1 F1R      -0.100000
      7 CAO         18.8340   -22.8490    15.3040 ca         1 F1R       0.311000
      8 CAP         19.4300   -23.7440    16.2300 ca         1 F1R      -0.131000
      9 CAQ         20.7140   -23.4180    16.7530 ca         1 F1R       0.415000
     10 CAR         18.7040   -24.8930    16.6460 ca         1 F1R      -0.182000
     11 CAS         17.4670   -25.1680    16.1320 ca         1 F1R       0.118100
     12 CAT         17.1840   -27.1000    17.4690 c3         1 F1R       0.143900
     13 CAU         16.8970   -24.3030    15.1620 ca         1 F1R      -0.086000
     14 CAV         17.5570   -23.1850    14.7710 ca         1 F1R      -0.088000
     15 CAW         16.5310   -23.3370    18.9370 ca         1 F1R       0.439400
     16 CAX         18.5320   -22.3980    19.2920 ca         1 F1R       0.449900
     17 CAY         17.1400   -21.5300    17.7670 ca         1 F1R       0.439400
     18 CBB         22.2010   -23.9150    18.7280 c3         1 F1R       0.233800
     19 CBC         21.9080   -24.7630    19.9580 c3         1 F1R      -0.101400
     20 CBD         20.5030   -24.6570    20.5460 c3         1 F1R      -0.097400
     21 CBE         20.0810   -23.2630    21.0020 c3         1 F1R       0.250800
     22 NAA         19.3750   -21.6900    14.9220 nb         1 F1R      -0.716000
     23 NAB         21.3070   -24.2510    17.6360 nu         1 F1R      -0.963200
     24 NAD         17.6770   -23.3680    19.6150 nb         1 F1R      -0.374500
     25 NAE         19.7080   -22.3590    19.9370 nu         1 F1R      -0.934100
     26 NAF         18.3170   -21.4460    18.3790 nb         1 F1R      -0.374500
     27 NAG         16.8520   -20.5810    16.8500 nv         1 F1R      -1.045900
     28 NAH         16.2000   -22.4440    18.0070 nb         1 F1R      -0.366000
     29 OAZ         16.6990   -26.2170    16.4810 os         1 F1R      -0.340100
     30 CLA         23.1080   -18.3280    14.7890 cl         1 F1R      -0.204000
     31 H1          24.2300   -20.4300    16.3460 ha         1 F1R       0.127000
     32 H2          23.3050   -22.4990    17.1450 ha         1 F1R       0.110000
     33 H3          20.5500   -19.5120    14.3320 ha         1 F1R       0.143000
     34 H4          19.1180   -25.5460    17.4010 ha         1 F1R       0.107000
     35 H5          16.4140   -27.8520    17.6220 h1         1 F1R       0.039700
     36 H6          18.1050   -27.5980    17.1530 h1         1 F1R       0.039700
     37 H7          17.3710   -26.5870    18.4170 h1         1 F1R       0.039700
     38 H8          15.9200   -24.5370    14.7580 ha         1 F1R       0.131000
     39 H9          17.1150   -22.5070    14.0530 ha         1 F1R       0.131000
     40 H10         23.2460   -24.0760    18.4470 h1         1 F1R       0.047700
     41 H11         22.0970   -22.8560    18.9650 h1         1 F1R       0.047700
     42 H12         22.1120   -25.8110    19.7180 hc         1 F1R       0.047200
     43 H13         22.6410   -24.4840    20.7200 hc         1 F1R       0.047200
     44 H14         19.7520   -25.0450    19.8540 hc         1 F1R       0.054700
     45 H15         20.4640   -25.3150    21.4180 hc         1 F1R       0.054700
     46 H16         20.8950   -22.7890    21.5530 h1         1 F1R       0.051200
     47 H17         19.2460   -23.3580    21.6980 h1         1 F1R       0.051200
     48 H18         20.9070   -25.1710    17.7100 hn         1 F1R       0.484000
     49 H19         14.8330   -24.4020    18.6190 hn         1 F1R       0.489500
     50 H20         15.8910   -25.0620    19.7990 hn         1 F1R       0.489500
     51 H21         20.3210   -21.5980    19.7000 hn         1 F1R       0.508000
     52 H22         16.0920   -20.7740    16.2200 hn         1 F1R       0.489500
     53 H23         17.6360   -20.1000    16.4400 hn         1 F1R       0.489500
     54 NAC         15.6140   -24.2750    19.2390 nv         1 F1R      -1.045900
@<TRIPOS>BOND
     1     1     2 ar  
     2     1     6 ar  
     3     1    30 1   
     4     2     3 ar  
     5     2    31 1   
     6     3     4 ar  
     7     3    32 1   
     8     4     5 ar  
     9     4     9 ar  
    10     5     6 ar  
    11     5    22 ar  
    12     6    33 1   
    13     7     8 ar  
    14     7    14 ar  
    15     7    22 ar  
    16     8     9 ar  
    17     8    10 ar  
    18     9    23 1   
    19    10    11 ar  
    20    10    34 1   
    21    11    13 ar  
    22    11    29 1   
    23    12    29 1   
    24    12    35 1   
    25    12    36 1   
    26    12    37 1   
    27    13    14 ar  
    28    13    38 1   
    29    14    39 1   
    30    15    24 ar  
    31    15    28 ar  
    32    15    54 1   
    33    16    24 ar  
    34    16    25 1   
    35    16    26 ar  
    36    17    26 ar  
    37    17    27 1   
    38    17    28 ar  
    39    18    19 1   
    40    18    23 1   
    41    18    40 1   
    42    18    41 1   
    43    19    20 1   
    44    19    42 1   
    45    19    43 1   
    46    20    21 1   
    47    20    44 1   
    48    20    45 1   
    49    21    25 1   
    50    21    46 1   
    51    21    47 1   
    52    23    48 1   
    53    25    51 1   
    54    27    52 1   
    55    27    53 1   
    56    49    54 1   
    57    50    54 1   
@<TRIPOS>SUBSTRUCTURE
     1 F1R         1 TEMP              0 ****  ****    0 ROOT
