@<TRIPOS>MOLECULE
F1R
   54    57     1     0     0
SMALL
No Charge or Current Charge


@<TRIPOS>ATOM
      1 CAI         20.1000   -19.9950    15.2300 ca         1 F1R       0.144000
      2 CAJ         21.2320   -20.3880    15.9520 ca         1 F1R      -0.136000
      3 CAK         21.3370   -21.7050    16.4230 ca         1 F1R      -0.066000
      4 CAL         20.3000   -22.6400    16.1760 ca         1 F1R      -0.153000
      5 CAM         19.1660   -22.2390    15.4350 ca         1 F1R       0.338000
      6 CAN         19.0790   -20.9160    14.9720 ca         1 F1R      -0.100000
      7 CAO         18.2310   -24.3740    15.5490 ca         1 F1R       0.311000
      8 CAP         19.3260   -24.8740    16.2910 ca         1 F1R      -0.131000
      9 CAQ         20.3710   -23.9790    16.6230 ca         1 F1R       0.415000
     10 CAR         19.3380   -26.2380    16.6930 ca         1 F1R      -0.182000
     11 CAS         18.2650   -27.0910    16.3610 ca         1 F1R       0.118100
     12 CAT         19.2650   -29.0310    17.5200 c3         1 F1R       0.143900
     13 CAU         17.1860   -26.5870    15.6240 ca         1 F1R      -0.086000
     14 CAV         17.1730   -25.2420    15.2230 ca         1 F1R      -0.088000
     15 CAW         17.5070   -20.6450    18.1580 ca         1 F1R       0.439400
     16 CAX         19.1510   -21.2020    19.5780 ca         1 F1R       0.449900
     17 CAY         19.1670   -19.2090    18.5560 ca         1 F1R       0.439400
     18 CBB         21.7550   -24.0670    18.7590 c3         1 F1R       0.233800
     19 CBC         20.9270   -24.9220    19.7480 c3         1 F1R      -0.101400
     20 CBD         19.4460   -24.4930    19.9490 c3         1 F1R      -0.097400
     21 CBE         19.2230   -23.3530    20.9730 c3         1 F1R       0.250800
     22 NAA         18.1660   -23.0930    15.1390 nb         1 F1R      -0.716000
     23 NAB         21.4790   -24.4330    17.3570 nu         1 F1R      -0.963200
     24 NAD         18.0040   -21.5700    18.9830 nb         1 F1R      -0.374500
     25 NAE         19.7240   -22.0500    20.5030 nu         1 F1R      -0.934100
     26 NAF         19.7820   -20.0320    19.4080 nb         1 F1R      -0.374500
     27 NAG         19.7470   -18.0110    18.3510 nv         1 F1R      -1.045900
     28 NAH         18.0290   -19.4440    17.8980 nb         1 F1R      -0.366000
     29 OAZ         18.2250   -28.4190    16.7370 os         1 F1R      -0.340100
     30 ClA         19.9660   -18.3430    14.6390 cl         1 F1R      -0.204000
     31 H1          22.0290   -19.6750    16.1460 ha         1 F1R       0.127000
     32 H2          22.2340   -21.9890    16.9660 ha         1 F1R       0.110000
     33 H3          18.2090   -20.6040    14.4030 ha         1 F1R       0.143000
     34 H4          20.1710   -26.6280    17.2660 ha         1 F1R       0.107000
     35 H5          19.0280   -30.0850    17.7100 h1         1 F1R       0.039700
     36 H6          20.2270   -28.9900    16.9910 h1         1 F1R       0.039700
     37 H7          19.3720   -28.5270    18.4880 h1         1 F1R       0.039700
     38 H8          16.3570   -27.2390    15.3640 ha         1 F1R       0.131000
     39 H9          16.3300   -24.8630    14.6520 ha         1 F1R       0.131000
     40 H10         22.8170   -24.2610    18.9630 h1         1 F1R       0.047700
     41 H11         21.5850   -22.9970    18.9320 h1         1 F1R       0.047700
     42 H12         20.9600   -25.9700    19.4270 hc         1 F1R       0.047200
     43 H13         21.4270   -24.8990    20.7240 hc         1 F1R       0.047200
     44 H14         18.9830   -24.2320    18.9920 hc         1 F1R       0.054700
     45 H15         18.8960   -25.3660    20.3180 hc         1 F1R       0.054700
     46 H16         19.7270   -23.6260    21.9100 h1         1 F1R       0.051200
     47 H17         18.1500   -23.2760    21.1980 h1         1 F1R       0.051200
     48 H18         21.7000   -25.4030    17.1430 hn         1 F1R       0.484000
     49 H19         16.0860   -20.3700    16.7470 hn         1 F1R       0.489500
     50 H20         16.1050   -21.9310    17.4700 hn         1 F1R       0.489500
     51 H21         20.5440   -21.6670    20.9710 hn         1 F1R       0.508000
     52 H22         19.4600   -17.4840    17.5320 hn         1 F1R       0.489500
     53 H23         20.7090   -17.8900    18.6550 hn         1 F1R       0.489500
     54 NAC         16.3530   -20.9490    17.5360 nv         1 F1R      -1.045900
@<TRIPOS>BOND
     1     1     2 ar  
     2     1     6 ar  
     3     1    30 1   
     4     2     3 ar  
     5     2    31 1   
     6     3     4 ar  
     7     3    32 1   
     8     4     5 ar  
     9     4     9 ar  
    10     5     6 ar  
    11     5    22 ar  
    12     6    33 1   
    13     7     8 ar  
    14     7    14 ar  
    15     7    22 ar  
    16     8     9 ar  
    17     8    10 ar  
    18     9    23 1   
    19    10    11 ar  
    20    10    34 1   
    21    11    13 ar  
    22    11    29 1   
    23    12    29 1   
    24    12    35 1   
    25    12    36 1   
    26    12    37 1   
    27    13    14 ar  
    28    13    38 1   
    29    14    39 1   
    30    15    24 ar  
    31    15    28 ar  
    32    15    54 1   
    33    16    24 ar  
    34    16    25 1   
    35    16    26 ar  
    36    17    26 ar  
    37    17    27 1   
    38    17    28 ar  
    39    18    19 1   
    40    18    23 1   
    41    18    40 1   
    42    18    41 1   
    43    19    20 1   
    44    19    42 1   
    45    19    43 1   
    46    20    21 1   
    47    20    44 1   
    48    20    45 1   
    49    21    25 1   
    50    21    46 1   
    51    21    47 1   
    52    23    48 1   
    53    25    51 1   
    54    27    52 1   
    55    27    53 1   
    56    49    54 1   
    57    50    54 1   
@<TRIPOS>SUBSTRUCTURE
     1 F1R         1 TEMP              0 ****  ****    0 ROOT
