@<TRIPOS>MOLECULE
F1S
   56    59     1     0     0
SMALL
No Charge or Current Charge


@<TRIPOS>ATOM
      1 C31          4.9940    -0.1300     2.0190 c3         1 F1S      -0.378100
      2 S30          5.5920     0.5540     0.4900 s6         1 F1S       1.193100
      3 O32          4.9400     1.8400     0.2380 o          1 F1S      -0.528000
      4 O33          7.0490     0.4360     0.4550 o          1 F1S      -0.528000
      5 N27          5.0530    -0.4910    -0.6820 nu         1 F1S      -0.868100
      6 C26          3.7490    -0.9580    -0.9590 ca         1 F1S       0.231000
      7 C25          2.6050    -0.2100    -0.6090 ca         1 F1S      -0.129000
      8 C21          3.5400    -2.2040    -1.6220 ca         1 F1S       0.375000
      9 Cl2          4.9040    -3.2130    -2.1060 cl         1 F1S      -0.181000
     10 N22          2.3220    -2.7080    -1.9290 nb         1 F1S      -0.629000
     11 C23          1.2390    -1.9690    -1.5710 ca         1 F1S       0.319900
     12 C24          1.3240    -0.7110    -0.9000 ca         1 F1S       0.299000
     13 N28          0.2130     0.0830    -0.5410 nu         1 F1S      -0.935900
     14 C2          -1.1170    -0.1520    -0.2850 ca         1 F1S       0.659900
     15 N1          -1.4080    -1.4510    -0.2320 nb         1 F1S      -0.759000
     16 C6          -2.6840    -1.8070     0.0090 ca         1 F1S       0.419900
     17 C5          -3.7190    -0.8790     0.2070 ca         1 F1S      -0.193300
     18 C15         -5.1590    -1.3360     0.4760 c6         1 F1S       0.000600
     19 C16         -5.7420    -2.1540    -0.7080 c6         1 F1S      -0.109400
     20 C17         -7.1710    -2.6490    -0.3790 c6         1 F1S       0.154600
     21 O18         -7.1570    -3.4080     0.8500 os         1 F1S      -0.448000
     22 C19         -6.7250    -2.6490     2.0010 c6         1 F1S       0.154600
     23 C20         -5.2740    -2.1540     1.7910 c6         1 F1S      -0.109400
     24 C4          -3.3980     0.4870     0.1590 ca         1 F1S       0.013000
     25 C3          -2.0590     0.8920    -0.0840 cp         1 F1S      -0.279500
     26 C7          -1.7200     2.3590    -0.1240 cp         1 F1S       0.293500
     27 N12         -2.7190     3.2270    -0.3890 nb         1 F1S      -0.306000
     28 N8          -0.4510     2.7570     0.1230 nb         1 F1S      -0.327000
     29 C9          -0.2220     4.0860     0.0910 ca         1 F1S       0.231300
     30 C13          1.1960     4.5540     0.3540 c3         1 F1S      -0.151400
     31 N10         -1.1570     5.0190    -0.1680 nb         1 F1S      -0.289000
     32 C11         -2.3770     4.5200    -0.3950 ca         1 F1S       0.425900
     33 N14         -3.3600     5.4070    -0.6630 nv         1 F1S      -1.058900
     34 H1           5.3980    -1.1440     2.1080 h1         1 F1S       0.106367
     35 H2           5.3550     0.5130     2.8270 h1         1 F1S       0.106367
     36 H3           3.9010    -0.1380     1.9790 h1         1 F1S       0.106367
     37 H4           5.8360    -1.1020    -0.8860 hn         1 F1S       0.503000
     38 H5           2.6980     0.7510    -0.1190 ha         1 F1S       0.152000
     39 H6           0.2780    -2.3880    -1.8590 h4         1 F1S       0.065100
     40 H7           0.4340     1.0580    -0.3510 hn         1 F1S       0.559000
     41 H8          -2.8810    -2.8790     0.0420 h4         1 F1S       0.024100
     42 H9          -5.7890    -0.4420     0.5940 hc         1 F1S       0.050700
     43 H10         -5.7630    -1.5380    -1.6170 hc         1 F1S       0.052950
     44 H11         -5.1040    -3.0200    -0.9290 hc         1 F1S       0.052950
     45 H12         -7.8570    -1.7960    -0.2720 h1         1 F1S       0.044450
     46 H13         -7.5440    -3.2890    -1.1910 h1         1 F1S       0.044450
     47 H14         -7.4040    -1.7960     2.1500 h1         1 F1S       0.044450
     48 H15         -6.7790    -3.2890     2.8930 h1         1 F1S       0.044450
     49 H16         -4.5990    -3.0200     1.7660 hc         1 F1S       0.052950
     50 H17         -4.9650    -1.5380     2.6460 hc         1 F1S       0.052950
     51 H18         -4.1810     1.2250     0.3230 ha         1 F1S       0.140000
     52 H19          1.8240     4.4090    -0.5330 hc         1 F1S       0.071033
     53 H20          1.2280     5.6180     0.6160 hc         1 F1S       0.071033
     54 H21          1.6500     3.9960     1.1810 hc         1 F1S       0.071033
     55 H22         -4.2220     5.0550    -1.0720 hn         1 F1S       0.512000
     56 H23         -3.0970     6.3580    -0.9120 hn         1 F1S       0.512000
@<TRIPOS>BOND
     1     1     2 1   
     2     1    34 1   
     3     1    35 1   
     4     1    36 1   
     5     2     3 2   
     6     2     4 2   
     7     2     5 1   
     8     5     6 1   
     9     5    37 1   
    10     6     7 ar  
    11     6     8 ar  
    12     7    12 ar  
    13     7    38 1   
    14     8     9 1   
    15     8    10 ar  
    16    10    11 ar  
    17    11    12 ar  
    18    11    39 1   
    19    12    13 1   
    20    13    14 1   
    21    13    40 1   
    22    14    15 ar  
    23    14    25 ar  
    24    15    16 ar  
    25    16    17 ar  
    26    16    41 1   
    27    17    18 1   
    28    17    24 ar  
    29    18    19 1   
    30    18    23 1   
    31    18    42 1   
    32    19    20 1   
    33    19    43 1   
    34    19    44 1   
    35    20    21 1   
    36    20    45 1   
    37    20    46 1   
    38    21    22 1   
    39    22    23 1   
    40    22    47 1   
    41    22    48 1   
    42    23    49 1   
    43    23    50 1   
    44    24    25 ar  
    45    24    51 1   
    46    25    26 1   
    47    26    27 ar  
    48    26    28 ar  
    49    27    32 ar  
    50    28    29 ar  
    51    29    30 1   
    52    29    31 ar  
    53    30    52 1   
    54    30    53 1   
    55    30    54 1   
    56    31    32 ar  
    57    32    33 1   
    58    33    55 1   
    59    33    56 1   
@<TRIPOS>SUBSTRUCTURE
     1 F1S         1 TEMP              0 ****  ****    0 ROOT
