@<TRIPOS>MOLECULE
F1S
   56    59     1     0     0
SMALL
bcc


@<TRIPOS>ATOM
      1 C31          5.8490    -0.3830     1.6900 c3         1 F1S      -0.267300
      2 S30          5.5600     0.7750     0.3750 s6         1 F1S       1.223900
      3 O32          4.5370     1.7120     0.8040 o          1 F1S      -0.598800
      4 O33          6.8340     1.2660    -0.1170 o          1 F1S      -0.598800
      5 N27          4.9200    -0.1190    -0.8840 nu         1 F1S      -0.674500
      6 C26          3.6910    -0.7790    -0.7180 ca         1 F1S       0.027300
      7 C25          2.5120    -0.0640    -0.6510 ca         1 F1S      -0.147000
      8 C21          3.5880    -2.1710    -0.6330 ca         1 F1S       0.440300
      9 CL2          5.0290    -3.1390    -0.7100 cl         1 F1S      -0.181000
     10 N22          2.4530    -2.7970    -0.5090 nb         1 F1S      -0.629000
     11 C23          1.3160    -2.1160    -0.4250 ca         1 F1S       0.385200
     12 C24          1.2850    -0.7170    -0.4820 ca         1 F1S       0.095300
     13 N28          0.1750     0.0910    -0.3930 nu         1 F1S      -0.742300
     14 C2          -1.1450    -0.2090    -0.2340 ca         1 F1S       0.725200
     15 N1          -1.5080    -1.4860    -0.2130 nb         1 F1S      -0.759000
     16 C6          -2.7800    -1.8070    -0.0460 ca         1 F1S       0.485200
     17 C5          -3.8060    -0.8840     0.1170 ca         1 F1S      -0.258600
     18 C15         -5.2370    -1.3000     0.3230 c6         1 F1S       0.000600
     19 C16         -5.8380    -1.9710    -0.9160 c6         1 F1S      -0.109400
     20 C17         -7.2630    -2.4210    -0.6340 c6         1 F1S       0.131400
     21 O18         -7.3370    -3.2790     0.4830 os         1 F1S      -0.401600
     22 C19         -6.8620    -2.6610     1.6590 c6         1 F1S       0.131400
     23 C20         -5.4110    -2.2260     1.5300 c6         1 F1S      -0.109400
     24 C4          -3.4270     0.4480     0.0810 ca         1 F1S      -0.005000
     25 C3          -2.1020     0.8340    -0.0960 cp         1 F1S      -0.344800
     26 C7          -1.7800     2.2730    -0.1150 cp         1 F1S       0.819500
     27 N12         -2.7800     3.1260     0.0200 nb         1 F1S      -0.832000
     28 N8          -0.5070     2.6410    -0.2610 nb         1 F1S      -0.853000
     29 C9          -0.2620     3.9530    -0.2560 ca         1 F1S       0.757300
     30 C13          1.1580     4.3710    -0.4280 c3         1 F1S      -0.151400
     31 N10         -1.1860     4.8780    -0.1240 nb         1 F1S      -0.815000
     32 C11         -2.4440     4.4190     0.0070 ca         1 F1S       0.951900
     33 N14         -3.4140     5.3170     0.1350 nv         1 F1S      -0.948500
     34 H1           6.5410    -1.1480     1.3480 h1         1 F1S       0.106367
     35 H2           6.2820     0.1670     2.5240 h1         1 F1S       0.106367
     36 H3           4.9060    -0.8300     1.9970 h1         1 F1S       0.106367
     37 H4           5.6360    -0.6520    -1.3690 hn         1 F1S       0.447800
     38 H5           2.5460     1.0130    -0.7430 ha         1 F1S       0.170000
     39 H6           0.4120    -2.6920    -0.3120 h4         1 F1S       0.065100
     40 H7           0.3430     1.1030    -0.4080 hn         1 F1S       0.503800
     41 H8          -2.9910    -2.8720    -0.0410 h4         1 F1S       0.024100
     42 H9          -5.8160    -0.3900     0.5180 hc         1 F1S       0.050700
     43 H10         -5.8400    -1.2790    -1.7610 hc         1 F1S       0.052950
     44 H11         -5.2330    -2.8340    -1.2100 hc         1 F1S       0.052950
     45 H12         -7.9020    -1.5380    -0.4800 h1         1 F1S       0.044450
     46 H13         -7.6690    -2.9700    -1.4860 h1         1 F1S       0.044450
     47 H14         -7.4830    -1.7890     1.9120 h1         1 F1S       0.044450
     48 H15         -6.9750    -3.3860     2.4670 h1         1 F1S       0.044450
     49 H16         -4.7730    -3.1100     1.4270 hc         1 F1S       0.052950
     50 H17         -5.1050    -1.7180     2.4470 hc         1 F1S       0.052950
     51 H18         -4.1760     1.2210     0.1940 ha         1 F1S       0.158000
     52 H19          1.4890     4.1390    -1.4420 hc         1 F1S       0.071033
     53 H20          1.2800     5.4370    -0.2570 hc         1 F1S       0.071033
     54 H21          1.8040     3.8180     0.2550 hc         1 F1S       0.071033
     55 H22         -4.3720     5.0270     0.2210 hn         1 F1S       0.456800
     56 H23         -3.2030     6.3000     0.1230 hn         1 F1S       0.456800
@<TRIPOS>BOND
     1     1     2 1   
     2     1    34 1   
     3     1    35 1   
     4     1    36 1   
     5     2     3 2   
     6     2     4 2   
     7     2     5 1   
     8     5     6 1   
     9     5    37 1   
    10     6     7 ar  
    11     6     8 ar  
    12     7    12 ar  
    13     7    38 1   
    14     8     9 1   
    15     8    10 ar  
    16    10    11 ar  
    17    11    12 ar  
    18    11    39 1   
    19    12    13 1   
    20    13    14 1   
    21    13    40 1   
    22    14    15 ar  
    23    14    25 ar  
    24    15    16 ar  
    25    16    17 ar  
    26    16    41 1   
    27    17    18 1   
    28    17    24 ar  
    29    18    19 1   
    30    18    23 1   
    31    18    42 1   
    32    19    20 1   
    33    19    43 1   
    34    19    44 1   
    35    20    21 1   
    36    20    45 1   
    37    20    46 1   
    38    21    22 1   
    39    22    23 1   
    40    22    47 1   
    41    22    48 1   
    42    23    49 1   
    43    23    50 1   
    44    24    25 ar  
    45    24    51 1   
    46    25    26 1   
    47    26    27 ar  
    48    26    28 ar  
    49    27    32 ar  
    50    28    29 ar  
    51    29    30 1   
    52    29    31 ar  
    53    30    52 1   
    54    30    53 1   
    55    30    54 1   
    56    31    32 ar  
    57    32    33 1   
    58    33    55 1   
    59    33    56 1   
@<TRIPOS>SUBSTRUCTURE
     1 F1S         1 TEMP              0 ****  ****    0 ROOT
