@<TRIPOS>MOLECULE
F1T
   33    35     1     0     0
SMALL
No Charge or Current Charge


@<TRIPOS>ATOM
      1 N1          12.8500   -11.1870    -8.5310 nb         1 F1T      -0.197000
      2 N3          10.4980   -10.9990    -5.1080 nu         1 F1T      -0.926900
      3 C4          12.7070   -13.6300    -8.4560 c3         1 F1T      -0.139400
      4 C5          11.3020   -11.0520    -6.2330 ca         1 F1T       0.465900
      5 C6          10.0880   -11.9450    -4.1640 ca         1 F1T       0.332000
      6 C7           8.8920   -11.7240    -3.4650 ca         1 F1T      -0.154000
      7 C8           8.4470   -12.6400    -2.4970 ca         1 F1T      -0.030500
      8 C10         10.4140   -14.0090    -2.9020 ca         1 F1T      -0.030500
      9 C13         11.7610    -9.9000    -6.8610 ca         1 F1T      -0.423900
     10 F2           7.9860   -14.2170    -0.1810 f          1 F1T      -0.113333
     11 F            9.7460   -15.4320    -0.5360 f          1 F1T      -0.113333
     12 F1           7.9490   -15.7560    -1.7160 f          1 F1T      -0.113333
     13 C9           9.2080   -13.7920    -2.2020 ca         1 F1T      -0.219300
     14 C11         10.8510   -13.0880    -3.8690 ca         1 F1T      -0.154000
     15 N2          11.6000   -12.2560    -6.7580 nb         1 F1T      -0.290000
     16 C3          12.3620   -12.2690    -7.8800 ca         1 F1T       0.222300
     17 C1          11.6520    -8.5010    -6.5980 cc         1 F1T       0.418900
     18 C           10.9270    -7.8480    -5.4570 c3         1 F1T      -0.124400
     19 C2          12.5200   -10.0090    -7.9810 ca         1 F1T       0.321300
     20 O           12.8880    -8.7730    -8.4420 os         1 F1T      -0.232300
     21 N           12.3120    -7.7990    -7.5220 nd         1 F1T      -0.286700
     22 H1          10.0440   -10.0980    -4.9960 hn         1 F1T       0.503000
     23 H2          12.7850   -13.5930    -9.5490 hc         1 F1T       0.068367
     24 H3          13.6670   -13.9840    -8.0630 hc         1 F1T       0.068367
     25 H4          11.9450   -14.3770    -8.2050 hc         1 F1T       0.068367
     26 H5           8.2940   -10.8430    -3.6770 ha         1 F1T       0.138500
     27 H6           7.5080   -12.4510    -1.9790 ha         1 F1T       0.133000
     28 H7          11.0200   -14.8900    -2.6980 ha         1 F1T       0.133000
     29 H8          11.7940   -13.2650    -4.3740 ha         1 F1T       0.138500
     30 H9          11.1050    -6.7660    -5.4470 hc         1 F1T       0.062367
     31 H10          9.8460    -8.0070    -5.5410 hc         1 F1T       0.062367
     32 H11         11.2700    -8.2490    -4.4960 hc         1 F1T       0.062367
     33 C12          8.7230   -14.8000    -1.1550 c3         1 F1T       0.348300
@<TRIPOS>BOND
     1     1    16 ar  
     2     1    19 ar  
     3     2     4 1   
     4     2     5 1   
     5     2    22 1   
     6     3    16 1   
     7     3    23 1   
     8     3    24 1   
     9     3    25 1   
    10     4     9 ar  
    11     4    15 ar  
    12     5     6 ar  
    13     5    14 ar  
    14     6     7 ar  
    15     6    26 1   
    16     7    13 ar  
    17     7    27 1   
    18     8    13 ar  
    19     8    14 ar  
    20     8    28 1   
    21     9    17 1   
    22     9    19 ar  
    23    10    33 1   
    24    11    33 1   
    25    12    33 1   
    26    13    33 1   
    27    14    29 1   
    28    15    16 ar  
    29    17    18 1   
    30    17    21 2   
    31    18    30 1   
    32    18    31 1   
    33    18    32 1   
    34    19    20 1   
    35    20    21 1   
@<TRIPOS>SUBSTRUCTURE
     1 F1T         1 TEMP              0 ****  ****    0 ROOT
