@<TRIPOS>MOLECULE
F1T
   33    35     1     0     0
SMALL
abcg2


@<TRIPOS>ATOM
      1 N1          12.8590   -11.1990    -8.4620 nb         1 F1T      -0.197000
      2 N3          10.5800   -10.9930    -4.9870 nu         1 F1T      -0.926900
      3 C4          12.8830   -13.6130    -8.2110 c3         1 F1T      -0.139400
      4 C5          11.3200   -11.0490    -6.1240 ca         1 F1T       0.465900
      5 C6          10.1450   -11.9990    -4.1160 ca         1 F1T       0.332000
      6 C7           9.2640   -11.6040    -3.1010 ca         1 F1T      -0.154000
      7 C8           8.7940   -12.5180    -2.1740 ca         1 F1T      -0.030500
      8 C10         10.0730   -14.2460    -3.2530 ca         1 F1T      -0.030500
      9 C13         11.6670    -9.8660    -6.8190 ca         1 F1T      -0.423900
     10 F2           7.9130   -14.3450    -0.3140 f          1 F1T      -0.113333
     11 F            9.7350   -15.4840    -0.6150 f          1 F1T      -0.113333
     12 F1           8.0080   -15.8610    -1.8630 f          1 F1T      -0.113333
     13 C9           9.1990   -13.8480    -2.2450 ca         1 F1T      -0.219300
     14 C11         10.5490   -13.3380    -4.1850 ca         1 F1T      -0.154000
     15 N2          11.7360   -12.2190    -6.6140 nb         1 F1T      -0.290000
     16 C3          12.4700   -12.2550    -7.7380 ca         1 F1T       0.222300
     17 C1          11.4910    -8.4460    -6.7360 cc         1 F1T       0.418900
     18 C           10.7500    -7.6450    -5.7240 c3         1 F1T      -0.124400
     19 C2          12.4330   -10.0500    -7.9590 ca         1 F1T       0.321300
     20 O           12.7090    -8.8660    -8.5240 os         1 F1T      -0.232300
     21 N           12.0970    -7.8520    -7.7290 nd         1 F1T      -0.286700
     22 H1          10.2710   -10.0700    -4.7240 hn         1 F1T       0.503000
     23 H2          13.4510   -13.5450    -9.1350 hc         1 F1T       0.068367
     24 H3          13.4900   -14.1030    -7.4460 hc         1 F1T       0.068367
     25 H4          12.0000   -14.2360    -8.3690 hc         1 F1T       0.068367
     26 H5           8.9470   -10.5690    -3.0430 ha         1 F1T       0.138500
     27 H6           8.1150   -12.1900    -1.4000 ha         1 F1T       0.133000
     28 H7          10.3950   -15.2780    -3.3150 ha         1 F1T       0.133000
     29 H8          11.2240   -13.6570    -4.9590 ha         1 F1T       0.138500
     30 H9          10.8160    -6.5840    -5.9570 hc         1 F1T       0.062367
     31 H10          9.6980    -7.9390    -5.7060 hc         1 F1T       0.062367
     32 H11         11.1650    -7.8160    -4.7280 hc         1 F1T       0.062367
     33 C12          8.7130   -14.8660    -1.2640 c3         1 F1T       0.348300
@<TRIPOS>BOND
     1     1    16 ar  
     2     1    19 ar  
     3     2     4 1   
     4     2     5 1   
     5     2    22 1   
     6     3    16 1   
     7     3    23 1   
     8     3    24 1   
     9     3    25 1   
    10     4     9 ar  
    11     4    15 ar  
    12     5     6 ar  
    13     5    14 ar  
    14     6     7 ar  
    15     6    26 1   
    16     7    13 ar  
    17     7    27 1   
    18     8    13 ar  
    19     8    14 ar  
    20     8    28 1   
    21     9    17 1   
    22     9    19 ar  
    23    10    33 1   
    24    11    33 1   
    25    12    33 1   
    26    13    33 1   
    27    14    29 1   
    28    15    16 ar  
    29    17    18 1   
    30    17    21 2   
    31    18    30 1   
    32    18    31 1   
    33    18    32 1   
    34    19    20 1   
    35    20    21 1   
@<TRIPOS>SUBSTRUCTURE
     1 F1T         1 TEMP              0 ****  ****    0 ROOT
