@<TRIPOS>MOLECULE
F1U
   44    45     1     0     0
SMALL
No Charge or Current Charge


@<TRIPOS>ATOM
      1 C10        203.7990   283.4050    28.0080 ca         1 F1U      -0.076300
      2 C11        205.0450   283.7850    28.5690 ca         1 F1U      -0.136000
      3 C12        205.5840   285.0630    28.3480 ca         1 F1U       0.140100
      4 C13        204.8850   285.9890    27.5490 ca         1 F1U      -0.197000
      5 C1         200.4450   284.9830    29.4360 c3         1 F1U       0.161100
      6 C3         201.5960   282.8830    30.1310 c3         1 F1U       0.173800
      7 C4         201.6990   282.0880    28.7780 c6         1 F1U      -0.120700
      8 C5         201.0450   280.6710    28.8850 c6         1 F1U      -0.067400
      9 C6         201.0880   279.9200    27.5330 c6         1 F1U      -0.073400
     10 C7         202.5350   279.8060    27.0050 c6         1 F1U      -0.070400
     11 C8         203.2000   281.2040    26.9000 c6         1 F1U      -0.059400
     12 C9         203.1790   281.9940    28.2460 c6         1 F1U       0.239300
     13 C14        203.6590   285.6250    26.9730 ca         1 F1U      -0.076000
     14 C15        203.1250   284.3460    27.1960 ca         1 F1U      -0.144000
     15 C17        207.4400   286.6360    28.7710 c3         1 F1U       0.148900
     16 C19        199.1090   283.1040    30.3240 c3         1 F1U       0.161100
     17 O16        206.7990   285.3580    28.9330 os         1 F1U      -0.342100
     18 O18        203.9610   281.2630    29.2020 oh         1 F1U      -0.656000
     19 H1         205.6200   283.0950    29.1800 ha         1 F1U       0.135000
     20 H2         205.2750   286.9850    27.3600 ha         1 F1U       0.117000
     21 H3         201.4140   285.4950    29.5060 h1         1 F1U       0.028867
     22 H4         200.2710   284.7160    28.3860 h1         1 F1U       0.028867
     23 H5         199.6650   285.6940    29.7400 h1         1 F1U       0.028867
     24 H6         201.6290   282.1570    30.9550 h1         1 F1U       0.052200
     25 H7         202.5010   283.4940    30.2440 h1         1 F1U       0.052200
     26 H8         201.1120   282.6460    28.0400 hc         1 F1U       0.056700
     27 H9         200.0000   280.7500    29.2100 hc         1 F1U       0.042700
     28 H10        201.5550   280.0740    29.6530 hc         1 F1U       0.042700
     29 H11        200.4640   280.4470    26.7970 hc         1 F1U       0.037200
     30 H12        200.6540   278.9180    27.6490 hc         1 F1U       0.037200
     31 H13        202.5340   279.3210    26.0190 hc         1 F1U       0.046700
     32 H14        203.1230   279.1570    27.6670 hc         1 F1U       0.046700
     33 H15        204.2370   281.0900    26.5550 hc         1 F1U       0.050200
     34 H16        202.6850   281.7810    26.1210 hc         1 F1U       0.050200
     35 H17        203.1210   286.3350    26.3480 ha         1 F1U       0.110000
     36 H18        202.1790   284.0930    26.7240 ha         1 F1U       0.113000
     37 H19        208.3910   286.6570    29.3170 h1         1 F1U       0.040033
     38 H20        207.6510   286.8340    27.7120 h1         1 F1U       0.040033
     39 H21        206.8060   287.4420    29.1610 h1         1 F1U       0.040033
     40 H22        198.3220   283.7960    30.6510 h1         1 F1U       0.028867
     41 H23        198.8420   282.7370    29.3240 h1         1 F1U       0.028867
     42 H24        199.1200   282.2520    31.0180 h1         1 F1U       0.028867
     43 H26        203.9900   281.8100    30.0120 ho         1 F1U       0.444000
     44 N02        200.4220   283.7840    30.3070 n3         1 F1U      -0.732600
@<TRIPOS>BOND
     1     1     2 ar  
     2     1    12 1   
     3     1    14 ar  
     4     2     3 ar  
     5     2    19 1   
     6     3     4 ar  
     7     3    17 1   
     8     4    13 ar  
     9     4    20 1   
    10     5    21 1   
    11     5    22 1   
    12     5    23 1   
    13     5    44 1   
    14     6     7 1   
    15     6    24 1   
    16     6    25 1   
    17     6    44 1   
    18     7     8 1   
    19     7    12 1   
    20     7    26 1   
    21     8     9 1   
    22     8    27 1   
    23     8    28 1   
    24     9    10 1   
    25     9    29 1   
    26     9    30 1   
    27    10    11 1   
    28    10    31 1   
    29    10    32 1   
    30    11    12 1   
    31    11    33 1   
    32    11    34 1   
    33    12    18 1   
    34    13    14 ar  
    35    13    35 1   
    36    14    36 1   
    37    15    17 1   
    38    15    37 1   
    39    15    38 1   
    40    15    39 1   
    41    16    40 1   
    42    16    41 1   
    43    16    42 1   
    44    16    44 1   
    45    18    43 1   
@<TRIPOS>SUBSTRUCTURE
     1 F1U         1 TEMP              0 ****  ****    0 ROOT
