@<TRIPOS>MOLECULE
F1U
   44    45     1     0     0
SMALL
bcc


@<TRIPOS>ATOM
      1 C10        203.7710   283.4400    28.0300 ca         1 F1U      -0.076300
      2 C11        204.9850   283.7970    28.5960 ca         1 F1U      -0.154000
      3 C12        205.5620   285.0470    28.3480 ca         1 F1U       0.140100
      4 C13        204.9230   285.9520    27.5090 ca         1 F1U      -0.215000
      5 C1         200.3330   284.9000    29.4550 c3         1 F1U       0.161100
      6 C3         201.5830   282.9220    30.0960 c3         1 F1U       0.173800
      7 C4         201.6970   282.1570    28.7570 c6         1 F1U      -0.120700
      8 C5         201.0740   280.7590    28.8370 c6         1 F1U      -0.067400
      9 C6         201.1570   280.0080    27.5150 c6         1 F1U      -0.073400
     10 C7         202.5980   279.8980    27.0370 c6         1 F1U      -0.070400
     11 C8         203.2410   281.2760    26.9530 c6         1 F1U      -0.059400
     12 C9         203.1670   282.0590    28.2720 c6         1 F1U       0.216100
     13 C14        203.7070   285.5880    26.9370 ca         1 F1U      -0.094000
     14 C15        203.1330   284.3560    27.1870 ca         1 F1U      -0.162000
     15 C17        207.4040   286.4980    28.7120 c3         1 F1U       0.125700
     16 C19        199.1530   283.0320    30.3730 c3         1 F1U       0.161100
     17 O16        206.7380   285.2800    28.9650 os         1 F1U      -0.318900
     18 O18        203.9390   281.3210    29.1990 oh         1 F1U      -0.593800
     19 H1         205.5180   283.1100    29.2400 ha         1 F1U       0.153000
     20 H2         205.3420   286.9240    27.2910 ha         1 F1U       0.135000
     21 H3         201.2660   285.4640    29.4980 h1         1 F1U       0.028867
     22 H4         200.1350   284.6680    28.3970 h1         1 F1U       0.028867
     23 H5         199.5300   285.5580    29.7950 h1         1 F1U       0.028867
     24 H6         201.6430   282.2050    30.9230 h1         1 F1U       0.052200
     25 H7         202.4420   283.5940    30.2130 h1         1 F1U       0.052200
     26 H8         201.1480   282.7170    27.9910 hc         1 F1U       0.056700
     27 H9         200.0310   280.8420    29.1450 hc         1 F1U       0.042700
     28 H10        201.5750   280.1810    29.6200 hc         1 F1U       0.042700
     29 H11        200.5640   280.5380    26.7610 hc         1 F1U       0.037200
     30 H12        200.7110   279.0160    27.6180 hc         1 F1U       0.037200
     31 H13        202.6390   279.4200    26.0550 hc         1 F1U       0.046700
     32 H14        203.1640   279.2570    27.7170 hc         1 F1U       0.046700
     33 H15        204.2880   281.1970    26.6470 hc         1 F1U       0.050200
     34 H16        202.7360   281.8580    26.1780 hc         1 F1U       0.050200
     35 H17        203.2060   286.2890    26.2820 ha         1 F1U       0.128000
     36 H18        202.1870   284.1100    26.7220 ha         1 F1U       0.131000
     37 H19        208.3300   286.4690    29.2820 h1         1 F1U       0.040033
     38 H20        207.6490   286.6190    27.6530 h1         1 F1U       0.040033
     39 H21        206.8200   287.3630    29.0370 h1         1 F1U       0.040033
     40 H22        198.3780   283.6910    30.7720 h1         1 F1U       0.028867
     41 H23        198.7940   282.6640    29.4000 h1         1 F1U       0.028867
     42 H24        199.2370   282.1750    31.0430 h1         1 F1U       0.028867
     43 H26        203.8700   281.7210    30.0720 ho         1 F1U       0.405000
     44 N02        200.4080   283.7430    30.3140 n3         1 F1U      -0.732600
@<TRIPOS>BOND
     1     1     2 ar  
     2     1    12 1   
     3     1    14 ar  
     4     2     3 ar  
     5     2    19 1   
     6     3     4 ar  
     7     3    17 1   
     8     4    13 ar  
     9     4    20 1   
    10     5    21 1   
    11     5    22 1   
    12     5    23 1   
    13     5    44 1   
    14     6     7 1   
    15     6    24 1   
    16     6    25 1   
    17     6    44 1   
    18     7     8 1   
    19     7    12 1   
    20     7    26 1   
    21     8     9 1   
    22     8    27 1   
    23     8    28 1   
    24     9    10 1   
    25     9    29 1   
    26     9    30 1   
    27    10    11 1   
    28    10    31 1   
    29    10    32 1   
    30    11    12 1   
    31    11    33 1   
    32    11    34 1   
    33    12    18 1   
    34    13    14 ar  
    35    13    35 1   
    36    14    36 1   
    37    15    17 1   
    38    15    37 1   
    39    15    38 1   
    40    15    39 1   
    41    16    40 1   
    42    16    41 1   
    43    16    42 1   
    44    16    44 1   
    45    18    43 1   
@<TRIPOS>SUBSTRUCTURE
     1 F1U         1 TEMP              0 ****  ****    0 ROOT
