@<TRIPOS>MOLECULE
F1V
   42    43     1     0     0
SMALL
No Charge or Current Charge


@<TRIPOS>ATOM
      1 C1           3.2060    -1.1620     0.3550 ca         1 F1V       0.111100
      2 C2           4.3990    -0.3900     0.4180 ca         1 F1V      -0.166000
      3 C3           4.3750     0.9870     0.1060 ca         1 F1V      -0.092000
      4 O1          -2.2650    -1.4940    -0.3400 o          1 F1V      -0.604100
      5 C11         -5.0750    -1.9040     0.6460 c3         1 F1V      -0.080433
      6 C12         -4.8890    -1.1870    -1.7820 c3         1 F1V      -0.080433
      7 C13         -5.4130     0.5170     0.0080 c3         1 F1V      -0.080433
      8 C14          2.0050     0.8220    -0.3180 ca         1 F1V      -0.056800
      9 C15          1.9930    -0.5470    -0.0190 ca         1 F1V      -0.105000
     10 C9          -3.0600    -0.5850    -0.1390 c          1 F1V       0.601100
     11 C10         -4.6030    -0.7760    -0.3120 c3         1 F1V      -0.124000
     12 N1          -2.6250     0.6630     0.2590 ns         1 F1V      -0.511900
     13 C8          -1.2200     1.0420     0.4380 c3         1 F1V       0.104000
     14 C6           0.9400     1.6950    -0.7220 cc         1 F1V      -0.154400
     15 O            3.1800    -2.5110     0.6480 os         1 F1V      -0.346100
     16 C            4.3600    -3.2340     1.0400 c3         1 F1V       0.151900
     17 C4           3.1520     1.5620    -0.2610 ca         1 F1V      -0.077200
     18 N            2.9030     2.8780    -0.6080 na         1 F1V      -0.223700
     19 C5           1.5180     2.9490    -0.8950 cd         1 F1V      -0.143100
     20 H1           5.3460    -0.8400     0.7030 ha         1 F1V       0.115000
     21 H2           5.2840     1.5830     0.1490 ha         1 F1V       0.113000
     22 H3          -4.5660    -2.8500     0.4240 hc         1 F1V       0.039033
     23 H4          -4.8620    -1.6420     1.6900 hc         1 F1V       0.039033
     24 H5          -6.1550    -2.0740     0.5520 hc         1 F1V       0.039033
     25 H6          -5.9640    -1.3360    -1.9480 hc         1 F1V       0.039033
     26 H7          -4.5430    -0.4120    -2.4770 hc         1 F1V       0.039033
     27 H8          -4.3770    -2.1230    -2.0380 hc         1 F1V       0.039033
     28 H9          -5.2580     0.8380     1.0450 hc         1 F1V       0.039033
     29 H10         -5.1290     1.3410    -0.6590 hc         1 F1V       0.039033
     30 H11         -6.4890     0.3440    -0.1250 hc         1 F1V       0.039033
     31 H12          1.0750    -1.1250    -0.0750 ha         1 F1V       0.130000
     32 H13         -3.3370     1.3660     0.4120 hn         1 F1V       0.309500
     33 H14         -1.1780     1.9440     1.0630 h1         1 F1V       0.056200
     34 H15         -0.6980     0.2400     0.9750 h1         1 F1V       0.056200
     35 H16         -0.5750     0.4330    -1.5420 hc         1 F1V       0.043700
     36 H17         -1.0370     2.1250    -1.4270 hc         1 F1V       0.043700
     37 H18          4.7860    -2.8160     1.9610 h1         1 F1V       0.036700
     38 H19          4.1170    -4.2870     1.2250 h1         1 F1V       0.036700
     39 H20          5.1210    -3.1950     0.2500 h1         1 F1V       0.036700
     40 H21          3.5770     3.6380    -0.6490 hn         1 F1V       0.351000
     41 H22          1.0460     3.8820    -1.1960 h4         1 F1V       0.211000
     42 C7          -0.5070     1.3210    -0.9020 c3         1 F1V      -0.014200
@<TRIPOS>BOND
     1     1     2 ar  
     2     1     9 ar  
     3     1    15 1   
     4     2     3 ar  
     5     2    20 1   
     6     3    17 ar  
     7     3    21 1   
     8     4    10 2   
     9     5    11 1   
    10     5    22 1   
    11     5    23 1   
    12     5    24 1   
    13     6    11 1   
    14     6    25 1   
    15     6    26 1   
    16     6    27 1   
    17     7    11 1   
    18     7    28 1   
    19     7    29 1   
    20     7    30 1   
    21     8     9 ar  
    22     8    14 1   
    23     8    17 ar  
    24     9    31 1   
    25    10    11 1   
    26    10    12 1   
    27    12    13 1   
    28    12    32 1   
    29    13    33 1   
    30    13    34 1   
    31    13    42 1   
    32    14    19 2   
    33    14    42 1   
    34    15    16 1   
    35    16    37 1   
    36    16    38 1   
    37    16    39 1   
    38    17    18 1   
    39    18    19 1   
    40    18    40 1   
    41    19    41 1   
    42    35    42 1   
    43    36    42 1   
@<TRIPOS>SUBSTRUCTURE
     1 F1V         1 TEMP              0 ****  ****    0 ROOT
