@<TRIPOS>MOLECULE
F1V
   42    43     1     0     0
SMALL
bcc


@<TRIPOS>ATOM
      1 C1           3.4070    -1.1760    -0.0070 ca         1 F1V       0.111100
      2 C2           4.4950    -0.3650     0.3680 ca         1 F1V      -0.184000
      3 C3           4.3720     1.0130     0.4200 ca         1 F1V      -0.110000
      4 O1          -3.1450    -0.6130     1.7240 o          1 F1V      -0.604100
      5 C11         -5.6940    -1.2930     0.9810 c3         1 F1V      -0.080433
      6 C12         -4.6010    -1.6200    -1.2350 c3         1 F1V      -0.080433
      7 C13         -5.4320     0.6520    -0.5610 c3         1 F1V      -0.080433
      8 C14          2.0440     0.7800    -0.2810 ca         1 F1V      -0.056800
      9 C15          2.1840    -0.6090    -0.3310 ca         1 F1V      -0.123000
     10 C9          -3.4210    -0.3380     0.5640 c          1 F1V       0.668100
     11 C10         -4.7860    -0.6480    -0.0620 c3         1 F1V      -0.124000
     12 N1          -2.5290     0.2580    -0.2440 ns         1 F1V      -0.578900
     13 C8          -1.1990     0.6300     0.1920 c3         1 F1V       0.104000
     14 C6           0.9520     1.6700    -0.5470 cc         1 F1V      -0.154400
     15 O            3.4750    -2.5290    -0.0720 os         1 F1V      -0.322900
     16 C            4.6920    -3.1650     0.2480 c3         1 F1V       0.128700
     17 C4           3.1460     1.5780     0.0940 ca         1 F1V      -0.077200
     18 N            2.7400     2.8840     0.0560 na         1 F1V      -0.173400
     19 C5           1.4310     2.9320    -0.3260 cd         1 F1V      -0.093100
     20 H1           5.4490    -0.8040     0.6260 ha         1 F1V       0.133000
     21 H2           5.2180     1.6230     0.7090 ha         1 F1V       0.131000
     22 H3          -5.2870    -2.2360     1.3460 hc         1 F1V       0.039033
     23 H4          -5.8590    -0.6420     1.8400 hc         1 F1V       0.039033
     24 H5          -6.6660    -1.5030     0.5320 hc         1 F1V       0.039033
     25 H6          -5.5740    -1.8910    -1.6470 hc         1 F1V       0.039033
     26 H7          -4.0110    -1.1930    -2.0470 hc         1 F1V       0.039033
     27 H8          -4.1090    -2.5400    -0.9140 hc         1 F1V       0.039033
     28 H9          -5.5140     1.3910     0.2380 hc         1 F1V       0.039033
     29 H10         -4.8780     1.1070    -1.3830 hc         1 F1V       0.039033
     30 H11         -6.4390     0.4460    -0.9270 hc         1 F1V       0.039033
     31 H12          1.3540    -1.2460    -0.6160 ha         1 F1V       0.148000
     32 H13         -2.7870     0.4740    -1.1930 hn         1 F1V       0.309500
     33 H14         -1.2560     1.3170     1.0400 h1         1 F1V       0.056200
     34 H15         -0.6570    -0.2550     0.5370 h1         1 F1V       0.056200
     35 H16         -0.4080     0.6150    -1.8070 hc         1 F1V       0.043700
     36 H17         -0.9770     2.1880    -1.2740 hc         1 F1V       0.043700
     37 H18          5.0090    -2.9610     1.2750 h1         1 F1V       0.036700
     38 H19          4.5210    -4.2340     0.1440 h1         1 F1V       0.036700
     39 H20          5.5010    -2.8760    -0.4290 h1         1 F1V       0.036700
     40 H21          3.3090     3.6850     0.2690 hn         1 F1V       0.300700
     41 H22          0.9210     3.8780    -0.4200 h4         1 F1V       0.161000
     42 C7          -0.4350     1.2950    -0.9490 c3         1 F1V      -0.014200
@<TRIPOS>BOND
     1     1     2 ar  
     2     1     9 ar  
     3     1    15 1   
     4     2     3 ar  
     5     2    20 1   
     6     3    17 ar  
     7     3    21 1   
     8     4    10 2   
     9     5    11 1   
    10     5    22 1   
    11     5    23 1   
    12     5    24 1   
    13     6    11 1   
    14     6    25 1   
    15     6    26 1   
    16     6    27 1   
    17     7    11 1   
    18     7    28 1   
    19     7    29 1   
    20     7    30 1   
    21     8     9 ar  
    22     8    14 1   
    23     8    17 ar  
    24     9    31 1   
    25    10    11 1   
    26    10    12 1   
    27    12    13 1   
    28    12    32 1   
    29    13    33 1   
    30    13    34 1   
    31    13    42 1   
    32    14    19 2   
    33    14    42 1   
    34    15    16 1   
    35    16    37 1   
    36    16    38 1   
    37    16    39 1   
    38    17    18 1   
    39    18    19 1   
    40    18    40 1   
    41    19    41 1   
    42    35    42 1   
    43    36    42 1   
@<TRIPOS>SUBSTRUCTURE
     1 F1V         1 TEMP              0 ****  ****    0 ROOT
