@<TRIPOS>MOLECULE
F1W
   66    67     1     0     0
SMALL
No Charge or Current Charge


@<TRIPOS>ATOM
      1 O1           5.2330     1.3420     2.2060 o          1 F1W      -0.572100
      2 C18          5.3510     0.3110     1.5530 c          1 F1W       0.608100
      3 C19          6.7040    -0.4030     1.4270 c3         1 F1W      -0.158400
      4 C20          7.6660     0.3540     0.4780 c3         1 F1W      -0.067400
      5 C21          9.0370    -0.3430     0.3280 c3         1 F1W      -0.079400
      6 C22          9.9970     0.4170    -0.6170 c3         1 F1W       0.165800
      7 N3          11.2710    -0.2870    -0.9150 n3         1 F1W      -0.713600
      8 C24         12.0300     0.3750    -1.9990 c3         1 F1W       0.150100
      9 C23         12.1160    -0.5300     0.2790 c3         1 F1W       0.150100
     10 N2           4.3050    -0.3300     0.8990 ns         1 F1W      -0.150000
     11 C13          2.9230    -0.0220     0.7670 ca         1 F1W      -0.009000
     12 C14          2.1220    -0.9260     0.0450 ca         1 F1W      -0.144500
     13 C15          0.7470    -0.6880    -0.1290 ca         1 F1W      -0.071500
     14 C17          2.3190     1.1270     1.3200 ca         1 F1W      -0.144500
     15 C16          0.9430     1.3650     1.1440 ca         1 F1W      -0.071500
     16 C12          0.1490     0.4660     0.4050 ca         1 F1W       0.016600
     17 N1          -1.2450     0.6540     0.2180 ns         1 F1W      -0.370100
     18 C11         -2.0410     1.7710     0.1400 cs         1 F1W       0.456400
     19 S           -1.4510     3.3370     0.0580 s          1 F1W      -0.521400
     20 N           -3.3600     1.4150     0.0610 ns         1 F1W      -0.441500
     21 C10         -4.5050     2.1750    -0.0580 c          1 F1W       0.627700
     22 O           -4.4890     3.3960    -0.1140 o          1 F1W      -0.488100
     23 C           -5.8130     1.4040    -0.1160 ca         1 F1W      -0.168600
     24 C5          -5.8710    -0.0090    -0.0570 ca         1 F1W      -0.069000
     25 C4          -7.1050    -0.6790    -0.1140 ca         1 F1W      -0.118000
     26 C3          -8.3250     0.0250    -0.2320 ca         1 F1W      -0.033300
     27 C6          -9.6620    -0.7610    -0.2910 c3         1 F1W      -0.004700
     28 C9          -9.6450    -1.7110    -1.5190 c3         1 F1W      -0.084100
     29 C8          -9.8230    -1.5990     1.0070 c3         1 F1W      -0.084100
     30 C7         -10.9070     0.1620    -0.4200 c3         1 F1W      -0.084100
     31 C2          -8.2610     1.4370    -0.2900 ca         1 F1W      -0.118000
     32 C1          -7.0290     2.1110    -0.2330 ca         1 F1W      -0.069000
     33 H1           7.1650    -0.4540     2.4200 hc         1 F1W       0.058700
     34 H2           6.5580    -1.4170     1.0350 hc         1 F1W       0.058700
     35 H3           7.1990     0.4480    -0.5100 hc         1 F1W       0.057200
     36 H4           7.8210     1.3730     0.8560 hc         1 F1W       0.057200
     37 H5           9.4930    -0.4390     1.3200 hc         1 F1W       0.044200
     38 H6           8.8850    -1.3580    -0.0600 hc         1 F1W       0.044200
     39 H7           9.4590     0.5930    -1.5590 h1         1 F1W       0.031200
     40 H8          10.2080     1.4040    -0.1830 h1         1 F1W       0.031200
     41 H10         12.3500     1.3810    -1.6960 h1         1 F1W       0.030033
     42 H11         12.9240    -0.2070    -2.2600 h1         1 F1W       0.030033
     43 H12         11.4150     0.4680    -2.9040 h1         1 F1W       0.030033
     44 H13         12.3840     0.4160     0.7690 h1         1 F1W       0.030033
     45 H14         11.6000    -1.1650     1.0110 h1         1 F1W       0.030033
     46 H15         13.0450    -1.0440    -0.0030 h1         1 F1W       0.030033
     47 H16          4.5800    -1.1780     0.4210 hn         1 F1W       0.148000
     48 H17          2.5640    -1.8220    -0.3860 ha         1 F1W       0.133500
     49 H18          0.1490    -1.4020    -0.6910 ha         1 F1W       0.126000
     50 H19          2.8910     1.8480     1.8940 ha         1 F1W       0.133500
     51 H20          0.5030     2.2430     1.6080 ha         1 F1W       0.126000
     52 H21         -1.7470    -0.2220     0.1480 hn         1 F1W       0.304500
     53 H22         -3.5400     0.4270     0.1040 hn         1 F1W       0.304500
     54 H23         -4.9730    -0.6130     0.0330 ha         1 F1W       0.122000
     55 H24         -7.1030    -1.7640    -0.0660 ha         1 F1W       0.119000
     56 H25         -8.8430    -2.4550    -1.4450 hc         1 F1W       0.037700
     57 H26        -10.5920    -2.2570    -1.6070 hc         1 F1W       0.037700
     58 H27         -9.4940    -1.1430    -2.4450 hc         1 F1W       0.037700
     59 H28         -9.8000    -0.9500     1.8910 hc         1 F1W       0.037700
     60 H29        -10.7770    -2.1410     1.0090 hc         1 F1W       0.037700
     61 H30         -9.0230    -2.3410     1.1120 hc         1 F1W       0.037700
     62 H31        -10.8620     0.7610    -1.3370 hc         1 F1W       0.037700
     63 H32        -11.8300    -0.4290    -0.4580 hc         1 F1W       0.037700
     64 H33        -10.9870     0.8410     0.4390 hc         1 F1W       0.037700
     65 H34         -9.1570     2.0420    -0.3800 ha         1 F1W       0.119000
     66 H35         -7.0290     3.1980    -0.2810 ha         1 F1W       0.122000
@<TRIPOS>BOND
     1     1     2 2   
     2     2     3 1   
     3     2    10 1   
     4     3     4 1   
     5     3    33 1   
     6     3    34 1   
     7     4     5 1   
     8     4    35 1   
     9     4    36 1   
    10     5     6 1   
    11     5    37 1   
    12     5    38 1   
    13     6     7 1   
    14     6    39 1   
    15     6    40 1   
    16     7     8 1   
    17     7     9 1   
    18     8    41 1   
    19     8    42 1   
    20     8    43 1   
    21     9    44 1   
    22     9    45 1   
    23     9    46 1   
    24    10    11 1   
    25    10    47 1   
    26    11    12 ar  
    27    11    14 ar  
    28    12    13 ar  
    29    12    48 1   
    30    13    16 ar  
    31    13    49 1   
    32    14    15 ar  
    33    14    50 1   
    34    15    16 ar  
    35    15    51 1   
    36    16    17 1   
    37    17    18 1   
    38    17    52 1   
    39    18    19 2   
    40    18    20 1   
    41    20    21 1   
    42    20    53 1   
    43    21    22 2   
    44    21    23 1   
    45    23    24 ar  
    46    23    32 ar  
    47    24    25 ar  
    48    24    54 1   
    49    25    26 ar  
    50    25    55 1   
    51    26    27 1   
    52    26    31 ar  
    53    27    28 1   
    54    27    29 1   
    55    27    30 1   
    56    28    56 1   
    57    28    57 1   
    58    28    58 1   
    59    29    59 1   
    60    29    60 1   
    61    29    61 1   
    62    30    62 1   
    63    30    63 1   
    64    30    64 1   
    65    31    32 ar  
    66    31    65 1   
    67    32    66 1   
@<TRIPOS>SUBSTRUCTURE
     1 F1W         1 TEMP              0 ****  ****    0 ROOT
