@<TRIPOS>MOLECULE
F1W
   66    67     1     0     0
SMALL
bcc


@<TRIPOS>ATOM
      1 O1           5.1390     1.3560     0.7560 o          1 F1W      -0.572100
      2 C18          5.2780     0.2480     0.2720 c          1 F1W       0.675100
      3 C19          6.6270    -0.4220     0.1290 c3         1 F1W      -0.158400
      4 C20          7.7970     0.5490     0.1300 c3         1 F1W      -0.067400
      5 C21          9.1330    -0.1820     0.0700 c3         1 F1W      -0.079400
      6 C22         10.3030     0.7920     0.0550 c3         1 F1W       0.165800
      7 N3          11.6010     0.1550    -0.0670 n3         1 F1W      -0.713600
      8 C24         12.6260     1.1320    -0.3660 c3         1 F1W       0.150100
      9 C23         11.9560    -0.6070     1.1120 c3         1 F1W       0.150100
     10 N2           4.2430    -0.5200    -0.1660 ns         1 F1W      -0.476100
     11 C13          2.8700    -0.2780    -0.1140 ca         1 F1W       0.083600
     12 C14          2.0320    -1.3050    -0.5540 ca         1 F1W      -0.162500
     13 C15          0.6570    -1.1530    -0.5470 ca         1 F1W      -0.089500
     14 C17          2.2920     0.9090     0.3440 ca         1 F1W      -0.162500
     15 C16          0.9130     1.0470     0.3600 ca         1 F1W      -0.089500
     16 C12          0.0870     0.0270    -0.0890 ca         1 F1W       0.016600
     17 N1          -1.3200     0.1370    -0.0280 ns         1 F1W      -0.437100
     18 C11         -2.0670     1.0580    -0.6610 cs         1 F1W       0.590400
     19 S           -1.4270     2.2180    -1.6580 s          1 F1W      -0.521400
     20 N           -3.4090     0.8910    -0.4000 ns         1 F1W      -0.575500
     21 C10         -4.4780     1.6780    -0.7890 c          1 F1W       0.694700
     22 O           -4.3650     2.7610    -1.3100 o          1 F1W      -0.488100
     23 C           -5.8110     1.0880    -0.4860 ca         1 F1W      -0.168600
     24 C5          -6.0370    -0.2820    -0.3470 ca         1 F1W      -0.087000
     25 C4          -7.3110    -0.7600    -0.0980 ca         1 F1W      -0.136000
     26 C3          -8.4070     0.0990     0.0250 ca         1 F1W      -0.033300
     27 C6          -9.7890    -0.4730     0.3140 c3         1 F1W      -0.004700
     28 C9         -10.1650    -1.4760    -0.7850 c3         1 F1W      -0.084100
     29 C8          -9.7570    -1.1850     1.6730 c3         1 F1W      -0.084100
     30 C7         -10.8660     0.6110     0.3600 c3         1 F1W      -0.084100
     31 C2          -8.1680     1.4640    -0.1220 ca         1 F1W      -0.136000
     32 C1          -6.8960     1.9510    -0.3800 ca         1 F1W      -0.087000
     33 H1           6.7280    -1.1250     0.9640 hc         1 F1W       0.058700
     34 H2           6.6460    -1.0340    -0.7770 hc         1 F1W       0.058700
     35 H3           7.7100     1.2300    -0.7220 hc         1 F1W       0.057200
     36 H4           7.7630     1.1690     1.0280 hc         1 F1W       0.057200
     37 H5           9.2030    -0.8570     0.9290 hc         1 F1W       0.044200
     38 H6           9.1800    -0.8110    -0.8250 hc         1 F1W       0.044200
     39 H7          10.1800     1.4610    -0.8030 h1         1 F1W       0.031200
     40 H8          10.2530     1.4350     0.9530 h1         1 F1W       0.031200
     41 H10         12.7450     1.8940     0.4220 h1         1 F1W       0.030033
     42 H11         13.5900     0.6380    -0.4950 h1         1 F1W       0.030033
     43 H12         12.3890     1.6530    -1.2950 h1         1 F1W       0.030033
     44 H13         11.9900     0.0070     2.0270 h1         1 F1W       0.030033
     45 H14         11.2510    -1.4190     1.2820 h1         1 F1W       0.030033
     46 H15         12.9420    -1.0560     0.9790 h1         1 F1W       0.030033
     47 H16          4.4980    -1.4170    -0.5520 hn         1 F1W       0.314500
     48 H17          2.4590    -2.2340    -0.9120 ha         1 F1W       0.151500
     49 H18          0.0290    -1.9610    -0.9000 ha         1 F1W       0.144000
     50 H19          2.9000     1.7240     0.6990 ha         1 F1W       0.151500
     51 H20          0.4830     1.9660     0.7330 ha         1 F1W       0.144000
     52 H21         -1.7920    -0.6030     0.4740 hn         1 F1W       0.304500
     53 H22         -3.6500     0.1030     0.1850 hn         1 F1W       0.304500
     54 H23         -5.2360    -1.0020    -0.4580 ha         1 F1W       0.140000
     55 H24         -7.4470    -1.8300    -0.0060 ha         1 F1W       0.137000
     56 H25         -9.4610    -2.3070    -0.8470 hc         1 F1W       0.037700
     57 H26        -11.1520    -1.8980    -0.5860 hc         1 F1W       0.037700
     58 H27        -10.2000    -0.9930    -1.7630 hc         1 F1W       0.037700
     59 H28         -9.4980    -0.4900     2.4740 hc         1 F1W       0.037700
     60 H29        -10.7380    -1.6060     1.9010 hc         1 F1W       0.037700
     61 H30         -9.0350    -2.0030     1.6920 hc         1 F1W       0.037700
     62 H31        -10.9500     1.1440    -0.5890 hc         1 F1W       0.037700
     63 H32        -11.8350     0.1540     0.5650 hc         1 F1W       0.037700
     64 H33        -10.6780     1.3440     1.1470 hc         1 F1W       0.037700
     65 H34         -8.9760     2.1760    -0.0390 ha         1 F1W       0.137000
     66 H35         -6.7510     3.0180    -0.4900 ha         1 F1W       0.140000
@<TRIPOS>BOND
     1     1     2 2   
     2     2     3 1   
     3     2    10 1   
     4     3     4 1   
     5     3    33 1   
     6     3    34 1   
     7     4     5 1   
     8     4    35 1   
     9     4    36 1   
    10     5     6 1   
    11     5    37 1   
    12     5    38 1   
    13     6     7 1   
    14     6    39 1   
    15     6    40 1   
    16     7     8 1   
    17     7     9 1   
    18     8    41 1   
    19     8    42 1   
    20     8    43 1   
    21     9    44 1   
    22     9    45 1   
    23     9    46 1   
    24    10    11 1   
    25    10    47 1   
    26    11    12 ar  
    27    11    14 ar  
    28    12    13 ar  
    29    12    48 1   
    30    13    16 ar  
    31    13    49 1   
    32    14    15 ar  
    33    14    50 1   
    34    15    16 ar  
    35    15    51 1   
    36    16    17 1   
    37    17    18 1   
    38    17    52 1   
    39    18    19 2   
    40    18    20 1   
    41    20    21 1   
    42    20    53 1   
    43    21    22 2   
    44    21    23 1   
    45    23    24 ar  
    46    23    32 ar  
    47    24    25 ar  
    48    24    54 1   
    49    25    26 ar  
    50    25    55 1   
    51    26    27 1   
    52    26    31 ar  
    53    27    28 1   
    54    27    29 1   
    55    27    30 1   
    56    28    56 1   
    57    28    57 1   
    58    28    58 1   
    59    29    59 1   
    60    29    60 1   
    61    29    61 1   
    62    30    62 1   
    63    30    63 1   
    64    30    64 1   
    65    31    32 ar  
    66    31    65 1   
    67    32    66 1   
@<TRIPOS>SUBSTRUCTURE
     1 F1W         1 TEMP              0 ****  ****    0 ROOT
