@<TRIPOS>MOLECULE
F1Y
   41    43     1     0     0
SMALL
No Charge or Current Charge


@<TRIPOS>ATOM
      1 C10          3.2680    -0.6110     0.4340 ca         1 F1Y      -0.212600
      2 C13          4.6880    -1.0730     0.1780 c          1 F1Y       0.613700
      3 C20         -5.2360     2.8650     0.2150 cc         1 F1Y      -0.098000
      4 C21         -5.2120     1.5820    -0.2920 cd         1 F1Y      -0.080000
      5 C22         -4.0020     0.8580    -0.0750 cd         1 F1Y      -0.062000
      6 C01         -0.8520    -3.6620    -1.9430 c3         1 F1Y      -0.089100
      7 C02         -1.5920    -2.3260    -1.7410 c3         1 F1Y      -0.072400
      8 C04         -2.4150    -0.6030    -0.0330 cc         1 F1Y       0.105400
      9 C05         -1.8900     0.4970     0.6350 cd         1 F1Y      -0.006100
     10 C07          0.6240     0.2500     0.9880 ca         1 F1Y       0.356000
     11 C08          1.5720     0.1780     2.0150 ca         1 F1Y      -0.195500
     12 C09          2.8820    -0.2530     1.7460 ca         1 F1Y      -0.023500
     13 C11          2.3080    -0.5110    -0.6030 ca         1 F1Y      -0.023500
     14 C12          1.0020    -0.0780    -0.3200 ca         1 F1Y      -0.195500
     15 C18         -2.9070     2.6970     1.1020 cd         1 F1Y      -0.104000
     16 C19         -4.0860     3.4100     0.8980 cc         1 F1Y      -0.145000
     17 N06         -0.6700     0.6870     1.2750 nu         1 F1Y      -0.835000
     18 N15          4.9910    -1.4770    -1.1190 ns         1 F1Y      -0.372400
     19 N17         -2.9440     1.3840     0.6170 na         1 F1Y       0.122100
     20 N23         -3.7100    -0.3690    -0.4670 nc         1 F1Y      -0.295600
     21 O14          5.5350    -1.0780     1.0650 o          1 F1Y      -0.566100
     22 O16          6.2340    -2.1620    -1.4190 oh         1 F1Y      -0.438100
     23 H1          -6.1180     3.4870     0.0930 ha         1 F1Y       0.126000
     24 H2          -6.0550     1.1550    -0.8260 ha         1 F1Y       0.145000
     25 H3          -1.4070    -4.4870    -1.4800 hc         1 F1Y       0.032700
     26 H4          -0.7400    -3.8790    -3.0120 hc         1 F1Y       0.032700
     27 H5           0.1490    -3.6220    -1.4950 hc         1 F1Y       0.032700
     28 H6          -1.0310    -1.5290    -2.2420 hc         1 F1Y       0.045200
     29 H7          -2.4320    -2.7240     0.2140 hc         1 F1Y       0.055200
     30 H8           1.2950     0.4440     3.0320 ha         1 F1Y       0.123500
     31 H9           3.5970    -0.3100     2.5650 ha         1 F1Y       0.124000
     32 H10          2.5570    -0.7510    -1.6330 ha         1 F1Y       0.124000
     33 H11          0.2840     0.0200    -1.1270 ha         1 F1Y       0.123500
     34 H12         -2.0130     3.0630     1.5890 h4         1 F1Y       0.150000
     35 H13         -4.1550     4.4330     1.2580 ha         1 F1Y       0.133000
     36 H14         -0.7200     1.2620     2.1200 hn         1 F1Y       0.503000
     37 H15          4.2360    -1.6130    -1.7870 hn         1 F1Y       0.326500
     38 H16          6.5920    -1.6640    -2.1920 ho         1 F1Y       0.450000
     39 H17         -2.5700    -2.3810    -2.2350 hc         1 F1Y       0.045200
     40 H18         -0.8330    -2.0260     0.2710 hc         1 F1Y       0.055200
     41 C03         -1.7930    -1.9630    -0.2510 c3         1 F1Y      -0.005200
@<TRIPOS>BOND
     1     1     2 1   
     2     1    12 ar  
     3     1    13 ar  
     4     2    18 1   
     5     2    21 2   
     6     3     4 2   
     7     3    16 1   
     8     3    23 1   
     9     4     5 1   
    10     4    24 1   
    11     5    19 1   
    12     5    20 2   
    13     6     7 1   
    14     6    25 1   
    15     6    26 1   
    16     6    27 1   
    17     7    28 1   
    18     7    39 1   
    19     7    41 1   
    20     8     9 2   
    21     8    20 1   
    22     8    41 1   
    23     9    17 1   
    24     9    19 1   
    25    10    11 ar  
    26    10    14 ar  
    27    10    17 1   
    28    11    12 ar  
    29    11    30 1   
    30    12    31 1   
    31    13    14 ar  
    32    13    32 1   
    33    14    33 1   
    34    15    16 2   
    35    15    19 1   
    36    15    34 1   
    37    16    35 1   
    38    17    36 1   
    39    18    22 1   
    40    18    37 1   
    41    22    38 1   
    42    29    41 1   
    43    40    41 1   
@<TRIPOS>SUBSTRUCTURE
     1 F1Y         1 TEMP              0 ****  ****    0 ROOT
