@<TRIPOS>MOLECULE
F1Y
   41    43     1     0     0
SMALL
abcg2


@<TRIPOS>ATOM
      1 C10          3.1140    -0.0720     0.2890 ca         1 F1Y      -0.212600
      2 C13          4.5440     0.0060    -0.0990 c          1 F1Y       0.613700
      3 C20         -3.9920     3.2730    -0.3230 cc         1 F1Y      -0.098000
      4 C21         -4.3410     2.0280    -0.7590 cd         1 F1Y      -0.080000
      5 C22         -3.5860     0.9160    -0.3370 cd         1 F1Y      -0.062000
      6 C01         -1.6080    -4.3850    -1.4240 c3         1 F1Y      -0.089100
      7 C02         -1.7720    -2.8770    -1.3030 c3         1 F1Y      -0.072400
      8 C04         -2.7290    -1.0040     0.0670 cc         1 F1Y       0.105400
      9 C05         -1.9670    -0.1050     0.7760 cd         1 F1Y      -0.006100
     10 C07          0.4360    -0.1920     1.1470 ca         1 F1Y       0.356000
     11 C08          1.4890    -0.3000     2.0640 ca         1 F1Y      -0.195500
     12 C09          2.7990    -0.2310     1.6390 ca         1 F1Y      -0.023500
     13 C11          2.0620     0.0450    -0.6200 ca         1 F1Y      -0.023500
     14 C12          0.7440    -0.0090    -0.2060 ca         1 F1Y      -0.195500
     15 C18         -2.1620     2.3710     0.9500 cd         1 F1Y      -0.104000
     16 C19         -2.8830     3.4470     0.5430 cc         1 F1Y      -0.145000
     17 N06         -0.8630    -0.2630     1.5920 nu         1 F1Y      -0.835000
     18 N15          4.7910    -0.2980    -1.3990 ns         1 F1Y      -0.372400
     19 N17         -2.5200     1.1340     0.5110 na         1 F1Y       0.122100
     20 N23         -3.7180    -0.3720    -0.6110 nc         1 F1Y      -0.295600
     21 O14          5.4200     0.3430     0.6800 o          1 F1Y      -0.566100
     22 O16          6.0910    -0.3990    -1.8030 oh         1 F1Y      -0.438100
     23 H1          -4.5620     4.1370    -0.6360 ha         1 F1Y       0.126000
     24 H2          -5.1810     1.8670    -1.4210 ha         1 F1Y       0.145000
     25 H3          -2.5760    -4.8880    -1.4620 hc         1 F1Y       0.032700
     26 H4          -1.0630    -4.6510    -2.3300 hc         1 F1Y       0.032700
     27 H5          -1.0570    -4.7930    -0.5750 hc         1 F1Y       0.032700
     28 H6          -0.7890    -2.4000    -1.3120 hc         1 F1Y       0.045200
     29 H7          -3.4880    -2.9760    -0.0040 hc         1 F1Y       0.055200
     30 H8           1.2730    -0.4350     3.1180 ha         1 F1Y       0.123500
     31 H9           3.5920    -0.3100     2.3710 ha         1 F1Y       0.124000
     32 H10          2.2530     0.2100    -1.6730 ha         1 F1Y       0.124000
     33 H11         -0.0450     0.0930    -0.9390 ha         1 F1Y       0.123500
     34 H12         -1.3100     2.4260     1.6110 h4         1 F1Y       0.150000
     35 H13         -2.6020     4.4310     0.8890 ha         1 F1Y       0.133000
     36 H14         -1.0070    -0.3590     2.5860 hn         1 F1Y       0.503000
     37 H15          4.1640    -0.9020    -1.9110 hn         1 F1Y       0.326500
     38 H16          6.2690     0.4010    -2.3120 ho         1 F1Y       0.450000
     39 H17         -2.3100    -2.4900    -2.1720 hc         1 F1Y       0.045200
     40 H18         -1.9610    -2.8240     0.8460 hc         1 F1Y       0.055200
     41 C03         -2.5170    -2.4740    -0.0280 c3         1 F1Y      -0.005200
@<TRIPOS>BOND
     1     1     2 1   
     2     1    12 ar  
     3     1    13 ar  
     4     2    18 1   
     5     2    21 2   
     6     3     4 2   
     7     3    16 1   
     8     3    23 1   
     9     4     5 1   
    10     4    24 1   
    11     5    19 1   
    12     5    20 2   
    13     6     7 1   
    14     6    25 1   
    15     6    26 1   
    16     6    27 1   
    17     7    28 1   
    18     7    39 1   
    19     7    41 1   
    20     8     9 2   
    21     8    20 1   
    22     8    41 1   
    23     9    17 1   
    24     9    19 1   
    25    10    11 ar  
    26    10    14 ar  
    27    10    17 1   
    28    11    12 ar  
    29    11    30 1   
    30    12    31 1   
    31    13    14 ar  
    32    13    32 1   
    33    14    33 1   
    34    15    16 2   
    35    15    19 1   
    36    15    34 1   
    37    16    35 1   
    38    17    36 1   
    39    18    22 1   
    40    18    37 1   
    41    22    38 1   
    42    29    41 1   
    43    40    41 1   
@<TRIPOS>SUBSTRUCTURE
     1 F1Y         1 TEMP              0 ****  ****    0 ROOT
