@<TRIPOS>MOLECULE
F1Z
   40    40     1     0     0
SMALL
No Charge or Current Charge


@<TRIPOS>ATOM
      1 O2           0.1700     0.3510     2.0580 o          1 F1Z      -0.644100
      2 C4           0.2840    -0.2500     1.0010 c          1 F1Z       0.659100
      3 N            1.4580    -0.2210     0.2930 ns         1 F1Z      -0.513900
      4 C3           2.6750     0.5120     0.7090 c3         1 F1Z       0.048000
      5 C2           3.8410     0.3150    -0.2830 c          1 F1Z       0.584100
      6 O1           3.7700    -0.3580    -1.3050 o          1 F1Z      -0.497000
      7 O            4.9650     0.9880     0.1220 os         1 F1Z      -0.445100
      8 C1           6.1390     0.8990    -0.7030 c3         1 F1Z       0.168600
      9 C            7.2390     1.7330    -0.0280 c3         1 F1Z      -0.098100
     10 N1          -0.7630    -1.0070     0.4410 n          1 F1Z      -0.424800
     11 C5          -0.6520    -1.6640    -0.8830 c3         1 F1Z       0.184100
     12 C6           0.1650    -2.8870    -0.8540 c1         1 F1Z      -0.189100
     13 C7           0.8600    -3.8770    -0.8140 c1         1 F1Z      -0.214000
     14 C8          -2.0610    -1.1310     1.1400 c3         1 F1Z       0.168300
     15 C9          -3.1420    -0.2370     0.5450 ca         1 F1Z      -0.161300
     16 C14         -4.1760    -0.7910    -0.2360 ca         1 F1Z      -0.054500
     17 C13         -5.1670     0.0410    -0.7860 ca         1 F1Z      -0.183000
     18 C12         -5.1330     1.4240    -0.5600 ca         1 F1Z       0.294000
     19 N2          -6.0990     2.2300    -1.0970 nv         1 F1Z      -1.071000
     20 C11         -4.1070     1.9790     0.2170 ca         1 F1Z      -0.183000
     21 C10         -3.1130     1.1530     0.7690 ca         1 F1Z      -0.054500
     22 H1           1.4980    -0.7850    -0.5470 hn         1 F1Z       0.337500
     23 H2           2.4590     1.5860     0.7740 h1         1 F1Z       0.080700
     24 H3           3.0030     0.1610     1.6950 h1         1 F1Z       0.080700
     25 H4           6.4750    -0.1420    -0.7970 h1         1 F1Z       0.050200
     26 H5           5.9430     1.2960    -1.7080 h1         1 F1Z       0.050200
     27 H6           8.1600     1.6970    -0.6220 hc         1 F1Z       0.048700
     28 H7           6.9290     2.7810     0.0630 hc         1 F1Z       0.048700
     29 H8           7.4600     1.3440     0.9730 hc         1 F1Z       0.048700
     30 H9          -1.6540    -1.9290    -1.2450 h1         1 F1Z       0.073200
     31 H10         -0.2320    -0.9580    -1.6120 h1         1 F1Z       0.073200
     32 H11          1.4690    -4.7590    -0.7670 ha         1 F1Z       0.257000
     33 H12         -2.3840    -2.1790     1.0910 h1         1 F1Z       0.064200
     34 H13         -1.9440    -0.8940     2.2060 h1         1 F1Z       0.064200
     35 H14         -4.2120    -1.8630    -0.4190 ha         1 F1Z       0.117000
     36 H15         -5.9610    -0.3950    -1.3870 ha         1 F1Z       0.112000
     37 H16         -5.9940     3.2420    -1.0550 hn         1 F1Z       0.447000
     38 H17         -6.7560     1.8510    -1.7760 hn         1 F1Z       0.447000
     39 H18         -4.0760     3.0500     0.3960 ha         1 F1Z       0.112000
     40 H19         -2.3190     1.5930     1.3700 ha         1 F1Z       0.117000
@<TRIPOS>BOND
     1     1     2 2   
     2     2     3 1   
     3     2    10 1   
     4     3     4 1   
     5     3    22 1   
     6     4     5 1   
     7     4    23 1   
     8     4    24 1   
     9     5     6 2   
    10     5     7 1   
    11     7     8 1   
    12     8     9 1   
    13     8    25 1   
    14     8    26 1   
    15     9    27 1   
    16     9    28 1   
    17     9    29 1   
    18    10    11 1   
    19    10    14 1   
    20    11    12 1   
    21    11    30 1   
    22    11    31 1   
    23    12    13 3   
    24    13    32 1   
    25    14    15 1   
    26    14    33 1   
    27    14    34 1   
    28    15    16 ar  
    29    15    21 ar  
    30    16    17 ar  
    31    16    35 1   
    32    17    18 ar  
    33    17    36 1   
    34    18    19 1   
    35    18    20 ar  
    36    19    37 1   
    37    19    38 1   
    38    20    21 ar  
    39    20    39 1   
    40    21    40 1   
@<TRIPOS>SUBSTRUCTURE
     1 F1Z         1 TEMP              0 ****  ****    0 ROOT
