@<TRIPOS>MOLECULE
F1Z
   40    40     1     0     0
SMALL
bcc


@<TRIPOS>ATOM
      1 O2           0.2410     0.4770     1.8890 o          1 F1Z      -0.644100
      2 C4           0.3570    -0.1710     0.8550 c          1 F1Z       0.793100
      3 N            1.5350    -0.2180     0.1730 ns         1 F1Z      -0.580900
      4 C3           2.6860     0.4600     0.7040 c3         1 F1Z       0.048000
      5 C2           3.8720     0.2360    -0.2020 c          1 F1Z       0.633100
      6 O1           3.8840    -0.5340    -1.1300 o          1 F1Z      -0.546000
      7 O            4.8960     0.9750     0.1740 os         1 F1Z      -0.421900
      8 C1           6.1320     0.8490    -0.5550 c3         1 F1Z       0.145400
      9 C            7.1410     1.7640     0.0930 c3         1 F1Z      -0.098100
     10 N1          -0.6820    -0.8620     0.3010 n          1 F1Z      -0.491800
     11 C5          -0.6150    -1.4440    -1.0200 c3         1 F1Z       0.184100
     12 C6           0.0360    -2.7570    -1.0390 c1         1 F1Z      -0.189100
     13 C7           0.5930    -3.8220    -1.0430 c1         1 F1Z      -0.126500
     14 C8          -1.9180    -1.0560     1.0400 c3         1 F1Z       0.168300
     15 C9          -3.0570    -0.2250     0.5110 ca         1 F1Z      -0.161300
     16 C14         -4.2170    -0.8120     0.0190 ca         1 F1Z      -0.072500
     17 C13         -5.2710    -0.0490    -0.4630 ca         1 F1Z      -0.201000
     18 C12         -5.1940     1.3470    -0.4700 ca         1 F1Z       0.155600
     19 N2          -6.2550     2.1200    -0.8930 nv         1 F1Z      -0.822200
     20 C11         -4.0220     1.9420     0.0190 ca         1 F1Z      -0.201000
     21 C10         -2.9820     1.1680     0.4980 ca         1 F1Z      -0.072500
     22 H1           1.7300    -0.9780    -0.4610 hn         1 F1Z       0.337500
     23 H2           2.5020     1.5320     0.7910 h1         1 F1Z       0.080700
     24 H3           2.9580     0.1070     1.7050 h1         1 F1Z       0.080700
     25 H4           6.4680    -0.1890    -0.5250 h1         1 F1Z       0.050200
     26 H5           5.9670     1.1220    -1.5990 h1         1 F1Z       0.050200
     27 H6           8.0860     1.6890    -0.4430 hc         1 F1Z       0.048700
     28 H7           6.8190     2.8050     0.0580 hc         1 F1Z       0.048700
     29 H8           7.3220     1.4900     1.1320 hc         1 F1Z       0.048700
     30 H9          -1.6330    -1.5430    -1.4030 h1         1 F1Z       0.073200
     31 H10         -0.1090    -0.7710    -1.7160 h1         1 F1Z       0.073200
     32 H11          1.0770    -4.7720    -1.0460 ha         1 F1Z       0.169500
     33 H12         -2.1840    -2.1160     0.9990 h1         1 F1Z       0.064200
     34 H13         -1.7270    -0.8230     2.0860 h1         1 F1Z       0.064200
     35 H14         -4.3080    -1.8930     0.0080 ha         1 F1Z       0.135000
     36 H15         -6.1600    -0.5390    -0.8420 ha         1 F1Z       0.130000
     37 H16         -6.0180     3.0440    -1.2170 hn         1 F1Z       0.391800
     38 H17         -6.9070     1.6650    -1.5110 hn         1 F1Z       0.391800
     39 H18         -3.9340     3.0230     0.0270 ha         1 F1Z       0.130000
     40 H19         -2.0930     1.6590     0.8770 ha         1 F1Z       0.135000
@<TRIPOS>BOND
     1     1     2 2   
     2     2     3 1   
     3     2    10 1   
     4     3     4 1   
     5     3    22 1   
     6     4     5 1   
     7     4    23 1   
     8     4    24 1   
     9     5     6 2   
    10     5     7 1   
    11     7     8 1   
    12     8     9 1   
    13     8    25 1   
    14     8    26 1   
    15     9    27 1   
    16     9    28 1   
    17     9    29 1   
    18    10    11 1   
    19    10    14 1   
    20    11    12 1   
    21    11    30 1   
    22    11    31 1   
    23    12    13 3   
    24    13    32 1   
    25    14    15 1   
    26    14    33 1   
    27    14    34 1   
    28    15    16 ar  
    29    15    21 ar  
    30    16    17 ar  
    31    16    35 1   
    32    17    18 ar  
    33    17    36 1   
    34    18    19 1   
    35    18    20 ar  
    36    19    37 1   
    37    19    38 1   
    38    20    21 ar  
    39    20    39 1   
    40    21    40 1   
@<TRIPOS>SUBSTRUCTURE
     1 F1Z         1 TEMP              0 ****  ****    0 ROOT
