@<TRIPOS>MOLECULE
F20
   67    70     1     0     0
SMALL
bcc


@<TRIPOS>ATOM
      1 C1          -4.6950    -1.8100     0.6930 c5         1 F20      -0.096600
      2 C2          -4.8430    -2.7470    -0.5060 c5         1 F20      -0.160400
      3 C3          -6.1060    -2.3940    -1.2620 c          1 F20       0.717500
      4 N4          -6.9310    -1.6450    -0.4640 ns         1 F20      -0.648300
      5 S5          -6.4300    -1.4720     1.1290 s6         1 F20       1.208600
      6 O6          -6.9560    -2.5550     1.9410 o          1 F20      -0.578300
      7 O7          -6.6730    -0.1080     1.5520 o          1 F20      -0.578300
      8 O9          -6.3660    -2.7200    -2.3930 o          1 F20      -0.561500
      9 C11         -3.9650    -0.5240     0.4470 ca         1 F20      -0.077300
     10 C12         -3.2600     0.0570     1.4940 ca         1 F20      -0.101500
     11 C13         -2.5770     1.2500     1.3120 ca         1 F20      -0.116000
     12 C14         -2.5860     1.8930     0.0790 ca         1 F20      -0.069300
     13 C15         -3.2960     1.3100    -0.9670 ca         1 F20      -0.116000
     14 C16         -3.9780     0.1180    -0.7880 ca         1 F20      -0.101500
     15 C21         -1.8200     3.1680    -0.1370 c3         1 F20      -0.044100
     16 C22         -0.5330     2.9390    -0.9410 c3         1 F20       0.033700
     17 C25          0.1810     4.2810    -1.1400 c          1 F20       0.660100
     18 O26          1.0020     4.6890    -0.3360 o          1 F20      -0.600100
     19 N27         -0.2190     4.9630    -2.2180 nt         1 F20      -0.667000
     20 N45          0.3250     2.0180    -0.2470 ns         1 F20      -0.547900
     21 C47          1.4840     1.6150    -0.7880 c          1 F20       0.659100
     22 C48          2.4190     0.8770     0.1590 c3         1 F20       0.035700
     23 O49          1.7970     1.8590    -1.9430 o          1 F20      -0.606100
     24 N51          3.2450    -0.0280    -0.5890 ns         1 F20      -0.559900
     25 C4           3.2660     1.9210     0.9230 c3         1 F20      -0.045100
     26 C5           4.2320     1.2590     1.8600 ca         1 F20      -0.080300
     27 C30          5.5310     0.9670     1.4540 ca         1 F20      -0.117500
     28 C31          6.4090     0.3030     2.3020 ca         1 F20      -0.124000
     29 C6           5.9960    -0.0740     3.5730 ca         1 F20      -0.123000
     30 C33          4.7030     0.2170     3.9900 ca         1 F20      -0.124000
     31 C34          3.8290     0.8760     3.1370 ca         1 F20      -0.117500
     32 C67          3.4970    -1.2950    -0.2080 c          1 F20       0.689700
     33 O70          2.9560    -1.8300     0.7490 o          1 F20      -0.603100
     34 C71          4.4800    -2.0380    -1.0540 ca         1 F20      -0.146600
     35 C74          4.3660    -3.4240    -1.1350 ca         1 F20      -0.089500
     36 C75          5.2590    -4.1570    -1.9020 ca         1 F20      -0.138500
     37 C76          6.2900    -3.5140    -2.5760 ca         1 F20      -0.108000
     38 C77          6.4230    -2.1350    -2.4820 ca         1 F20      -0.138500
     39 C78          5.5200    -1.3990    -1.7270 ca         1 F20      -0.089500
     40 H1          -4.2730    -2.3280     1.5550 h1         1 F20       0.117700
     41 H2C1        -3.9770    -2.7010    -1.1640 hc         1 F20       0.102200
     42 H2C2        -4.9380    -3.7810    -0.1670 hc         1 F20       0.102200
     43 H4          -7.8710    -1.3840    -0.7450 hn         1 F20       0.357500
     44 H12         -3.2370    -0.4270     2.4630 ha         1 F20       0.136500
     45 H13         -2.0350     1.6850     2.1430 ha         1 F20       0.134500
     46 H15         -3.3190     1.7910    -1.9380 ha         1 F20       0.134500
     47 H16         -4.5120    -0.2980    -1.6330 ha         1 F20       0.136500
     48 H211        -1.5700     3.6260     0.8230 hc         1 F20       0.066700
     49 H212        -2.4370     3.8870    -0.6790 hc         1 F20       0.066700
     50 H22         -0.7970     2.5180    -1.9160 h1         1 F20       0.077700
     51 H271         0.1490     5.8810    -2.4110 hn         1 F20       0.317000
     52 H272        -0.8530     4.5690    -2.8920 hn         1 F20       0.317000
     53 H45          0.1580     1.8420     0.7320 hn         1 F20       0.326500
     54 H48          1.8410     0.2950     0.8790 h1         1 F20       0.092700
     55 H51          3.6450     0.3220    -1.4450 hn         1 F20       0.334500
     56 H4C1         3.7990     2.5390     0.1970 hc         1 F20       0.064700
     57 H4C2         2.5930     2.5850     1.4690 hc         1 F20       0.064700
     58 H30          5.8630     1.2640     0.4660 ha         1 F20       0.124000
     59 H31          7.4150     0.0830     1.9710 ha         1 F20       0.129500
     60 H6           6.6790    -0.5900     4.2360 ha         1 F20       0.129000
     61 H33          4.3760    -0.0700     4.9810 ha         1 F20       0.129500
     62 H34          2.8210     1.0970     3.4690 ha         1 F20       0.124000
     63 H74          3.5680    -3.9300    -0.6080 ha         1 F20       0.141000
     64 H75          5.1520    -5.2310    -1.9710 ha         1 F20       0.134500
     65 H76          6.9910    -4.0870    -3.1680 ha         1 F20       0.132000
     66 H77          7.2330    -1.6300    -2.9900 ha         1 F20       0.134500
     67 H78          5.6550    -0.3270    -1.6510 ha         1 F20       0.141000
@<TRIPOS>BOND
     1     1     2 1   
     2     1     5 1   
     3     1     9 1   
     4     1    40 1   
     5     2     3 1   
     6     2    41 1   
     7     2    42 1   
     8     3     4 1   
     9     3     8 2   
    10     4     5 1   
    11     4    43 1   
    12     5     6 2   
    13     5     7 2   
    14     9    10 ar  
    15     9    14 ar  
    16    10    11 ar  
    17    10    44 1   
    18    11    12 ar  
    19    11    45 1   
    20    12    13 ar  
    21    12    15 1   
    22    13    14 ar  
    23    13    46 1   
    24    14    47 1   
    25    15    16 1   
    26    15    48 1   
    27    15    49 1   
    28    16    17 1   
    29    16    20 1   
    30    16    50 1   
    31    17    18 2   
    32    17    19 1   
    33    19    51 1   
    34    19    52 1   
    35    20    21 1   
    36    20    53 1   
    37    21    22 1   
    38    21    23 2   
    39    22    24 1   
    40    22    25 1   
    41    22    54 1   
    42    24    32 1   
    43    24    55 1   
    44    25    26 1   
    45    25    56 1   
    46    25    57 1   
    47    26    27 ar  
    48    26    31 ar  
    49    27    28 ar  
    50    27    58 1   
    51    28    29 ar  
    52    28    59 1   
    53    29    30 ar  
    54    29    60 1   
    55    30    31 ar  
    56    30    61 1   
    57    31    62 1   
    58    32    33 2   
    59    32    34 1   
    60    34    35 ar  
    61    34    39 ar  
    62    35    36 ar  
    63    35    63 1   
    64    36    37 ar  
    65    36    64 1   
    66    37    38 ar  
    67    37    65 1   
    68    38    39 ar  
    69    38    66 1   
    70    39    67 1   
@<TRIPOS>SUBSTRUCTURE
     1 F20         1 TEMP              0 ****  ****    0 ROOT
