@<TRIPOS>MOLECULE
F20
   67    70     1     0     0
SMALL
No Charge or Current Charge


@<TRIPOS>ATOM
      1 C1          -1.8820    -2.2580    -0.3990 c5         1 F20      -0.207400
      2 C2          -1.2190    -2.7070    -1.7650 c5         1 F20      -0.160400
      3 C3          -2.3300    -2.9630    -2.8250 c          1 F20       0.575000
      4 N4          -3.4650    -3.3040    -2.1680 ns         1 F20      -0.581300
      5 S5          -3.5390    -3.0850    -0.5330 s6         1 F20       1.177800
      6 O6          -3.5060    -4.4160     0.0820 o          1 F20      -0.507500
      7 O7          -4.6490    -2.1680    -0.2580 o          1 F20      -0.507500
      8 O9          -2.3230    -2.6770    -4.0080 o          1 F20      -0.486000
      9 C11         -1.9720    -0.7240    -0.3240 ca         1 F20      -0.077300
     10 C12         -1.7040    -0.0980     0.9090 ca         1 F20      -0.083500
     11 C13         -1.7540     1.3000     1.0360 ca         1 F20      -0.098000
     12 C14         -2.0670     2.1050    -0.0740 ca         1 F20      -0.069300
     13 C15         -2.3530     1.4900    -1.3050 ca         1 F20      -0.098000
     14 C16         -2.3100     0.0900    -1.4290 ca         1 F20      -0.083500
     15 C21         -2.0400     3.6280     0.0440 c3         1 F20      -0.044100
     16 C22         -0.6800     4.2540    -0.3820 c3         1 F20       0.033700
     17 C25         -0.5850     5.7640    -0.0150 c          1 F20       0.593100
     18 O26          0.2710     6.2340     0.7200 o          1 F20      -0.600100
     19 N27         -1.5280     6.5770    -0.5460 nt         1 F20      -0.600000
     20 N45          0.4570     3.4940     0.1910 ns         1 F20      -0.480900
     21 C47          1.0700     2.4220    -0.4270 c          1 F20       0.592100
     22 C48          1.9620     1.5530     0.4970 c3         1 F20       0.035700
     23 O49          0.8920     2.1660    -1.6130 o          1 F20      -0.606100
     24 N51          2.0010     0.1630    -0.0130 ns         1 F20      -0.492900
     25 C4           3.3890     2.1400     0.6220 c3         1 F20      -0.045100
     26 C5           4.2990     1.3070     1.5180 ca         1 F20      -0.080300
     27 C30          5.2130     0.3930     0.9560 ca         1 F20      -0.099500
     28 C31          6.0420    -0.3820     1.7850 ca         1 F20      -0.106000
     29 C6           5.9630    -0.2480     3.1810 ca         1 F20      -0.105000
     30 C33          5.0540     0.6620     3.7480 ca         1 F20      -0.106000
     31 C34          4.2240     1.4360     2.9190 ca         1 F20      -0.099500
     32 C67          1.8220    -0.9690     0.7510 c          1 F20       0.622700
     33 O70          1.6070    -0.9020     1.9540 o          1 F20      -0.603100
     34 C71          1.8990    -2.2940     0.0200 ca         1 F20      -0.146600
     35 C74          1.5580    -3.4840     0.7040 ca         1 F20      -0.071500
     36 C75          1.6100    -4.7280     0.0530 ca         1 F20      -0.120500
     37 C76          2.0090    -4.8040    -1.2900 ca         1 F20      -0.090000
     38 C77          2.3570    -3.6340    -1.9810 ca         1 F20      -0.120500
     39 C78          2.3050    -2.3860    -1.3350 ca         1 F20      -0.071500
     40 H1          -1.3830    -2.6860     0.4790 h1         1 F20       0.117700
     41 H2C1        -0.4440    -2.0390    -2.1550 hc         1 F20       0.102200
     42 H2C2        -0.7600    -3.6860    -1.5870 hc         1 F20       0.102200
     43 H4          -4.3540    -3.2360    -2.6310 hn         1 F20       0.357500
     44 H12         -1.4420    -0.6980     1.7780 ha         1 F20       0.118500
     45 H13         -1.5250     1.7570     1.9960 ha         1 F20       0.116500
     46 H15         -2.5930     2.0970    -2.1740 ha         1 F20       0.116500
     47 H16         -2.5350    -0.3450    -2.3980 ha         1 F20       0.118500
     48 H211        -2.2510     3.9160     1.0820 hc         1 F20       0.066700
     49 H212        -2.8480     4.0640    -0.5570 hc         1 F20       0.066700
     50 H22         -0.6130     4.2020    -1.4760 h1         1 F20       0.077700
     51 H271        -1.5050     7.5630    -0.3310 hn         1 F20       0.317000
     52 H272        -2.2380     6.2040    -1.1590 hn         1 F20       0.317000
     53 H45          0.7050     3.6690     1.1590 hn         1 F20       0.326500
     54 H48          1.4910     1.5570     1.4890 h1         1 F20       0.092700
     55 H51          2.1070     0.0290    -1.0100 hn         1 F20       0.334500
     56 H4C1         3.8270     2.2300    -0.3810 hc         1 F20       0.064700
     57 H4C2         3.3230     3.1640     1.0120 hc         1 F20       0.064700
     58 H30          5.2770     0.2790    -0.1240 ha         1 F20       0.106000
     59 H31          6.7430    -1.0870     1.3450 ha         1 F20       0.111500
     60 H6           6.6040    -0.8480     3.8230 ha         1 F20       0.111000
     61 H33          4.9910     0.7650     4.8290 ha         1 F20       0.111500
     62 H34          3.5210     2.1350     3.3660 ha         1 F20       0.106000
     63 H74          1.2440    -3.4470     1.7450 ha         1 F20       0.123000
     64 H75          1.3410    -5.6340     0.5920 ha         1 F20       0.116500
     65 H76          2.0500    -5.7680    -1.7930 ha         1 F20       0.114000
     66 H77          2.6700    -3.6920    -3.0210 ha         1 F20       0.116500
     67 H78          2.5910    -1.5040    -1.9010 ha         1 F20       0.123000
@<TRIPOS>BOND
     1     1     2 1   
     2     1     5 1   
     3     1     9 1   
     4     1    40 1   
     5     2     3 1   
     6     2    41 1   
     7     2    42 1   
     8     3     4 1   
     9     3     8 2   
    10     4     5 1   
    11     4    43 1   
    12     5     6 2   
    13     5     7 2   
    14     9    10 ar  
    15     9    14 ar  
    16    10    11 ar  
    17    10    44 1   
    18    11    12 ar  
    19    11    45 1   
    20    12    13 ar  
    21    12    15 1   
    22    13    14 ar  
    23    13    46 1   
    24    14    47 1   
    25    15    16 1   
    26    15    48 1   
    27    15    49 1   
    28    16    17 1   
    29    16    20 1   
    30    16    50 1   
    31    17    18 2   
    32    17    19 1   
    33    19    51 1   
    34    19    52 1   
    35    20    21 1   
    36    20    53 1   
    37    21    22 1   
    38    21    23 2   
    39    22    24 1   
    40    22    25 1   
    41    22    54 1   
    42    24    32 1   
    43    24    55 1   
    44    25    26 1   
    45    25    56 1   
    46    25    57 1   
    47    26    27 ar  
    48    26    31 ar  
    49    27    28 ar  
    50    27    58 1   
    51    28    29 ar  
    52    28    59 1   
    53    29    30 ar  
    54    29    60 1   
    55    30    31 ar  
    56    30    61 1   
    57    31    62 1   
    58    32    33 2   
    59    32    34 1   
    60    34    35 ar  
    61    34    39 ar  
    62    35    36 ar  
    63    35    63 1   
    64    36    37 ar  
    65    36    64 1   
    66    37    38 ar  
    67    37    65 1   
    68    38    39 ar  
    69    38    66 1   
    70    39    67 1   
@<TRIPOS>SUBSTRUCTURE
     1 F20         1 TEMP              0 ****  ****    0 ROOT
