@<TRIPOS>MOLECULE
F21
   40    42     1     0     0
SMALL
No Charge or Current Charge


@<TRIPOS>ATOM
      1 C12          2.5500     1.1740     0.5560 c6         1 F21       0.190800
      2 C13          3.6610     2.0670    -0.0520 c6         1 F21       0.059600
      3 S2           4.0250     1.6940    -1.8280 ss         1 F21      -0.426000
      4 C15          4.1990    -0.1390    -1.6370 c6         1 F21       0.059600
      5 C14          3.0310    -0.7960    -0.8600 c6         1 F21       0.190800
      6 N1           2.8860    -0.2820     0.5350 n3         1 F21      -0.721500
      7 S1           1.8830    -1.2420     1.5310 sy         1 F21       1.156600
      8 O2           2.3640    -2.6210     1.3870 o          1 F21      -0.532500
      9 O1           1.8700    -0.5920     2.8460 o          1 F21      -0.532500
     10 C7           0.2660    -1.0750     0.7510 ca         1 F21      -0.308500
     11 C8          -0.6060    -0.0380     1.1440 ca         1 F21      -0.012000
     12 C9          -1.8660     0.1040     0.5330 ca         1 F21      -0.096300
     13 C1          -2.8010     1.2310     0.9900 c6         1 F21       0.203100
     14 N2          -3.8680     1.5160     0.0030 n7         1 F21      -0.856400
     15 C3          -4.5910     0.2860    -0.4110 c6         1 F21       0.137500
     16 C11         -5.8510     0.6280    -1.2670 c3         1 F21       0.180600
     17 F1          -6.7310     1.4070    -0.5830 f          1 F21      -0.272000
     18 C4          -3.6230    -0.6610    -1.1650 c6         1 F21      -0.037100
     19 C10         -2.2650    -0.8070    -0.4720 ca         1 F21      -0.006300
     20 C5          -1.3930    -1.8420    -0.8590 ca         1 F21      -0.130000
     21 C6          -0.1350    -1.9810    -0.2510 ca         1 F21      -0.017000
     22 H121         1.6110     1.3610     0.0150 h1         1 F21       0.064950
     23 H122         2.3940     1.5200     1.5880 h1         1 F21       0.064950
     24 H131         3.3700     3.1240     0.0260 h1         1 F21       0.080700
     25 H132         4.5870     1.9300     0.5230 h1         1 F21       0.080700
     26 H151         4.2750    -0.5840    -2.6390 h1         1 F21       0.080700
     27 H152         5.1410    -0.3390    -1.1080 h1         1 F21       0.080700
     28 H141         3.2230    -1.8790    -0.8550 h1         1 F21       0.064950
     29 H142         2.1000    -0.6440    -1.4260 h1         1 F21       0.064950
     30 H8          -0.3090     0.6620     1.9230 ha         1 F21       0.134000
     31 H11         -3.2570     0.9400     1.9480 h1         1 F21       0.047700
     32 H12         -2.2170     2.1470     1.1680 h1         1 F21       0.047700
     33 HN2         -4.5410     2.1680     0.4280 hn         1 F21       0.429000
     34 H3          -4.9440    -0.2320     0.4940 h1         1 F21       0.042700
     35 H111        -6.3600    -0.3000    -1.5540 h1         1 F21       0.054200
     36 H112        -5.5480     1.1590    -2.1780 h1         1 F21       0.054200
     37 H41         -4.0930    -1.6480    -1.2800 hc         1 F21       0.062200
     38 H42         -3.4550    -0.2790    -2.1810 hc         1 F21       0.062200
     39 H5          -1.6920    -2.5420    -1.6360 ha         1 F21       0.118000
     40 H6           0.5230    -2.7900    -0.5640 ha         1 F21       0.133000
@<TRIPOS>BOND
     1     1     2 1   
     2     1     6 1   
     3     1    22 1   
     4     1    23 1   
     5     2     3 1   
     6     2    24 1   
     7     2    25 1   
     8     3     4 1   
     9     4     5 1   
    10     4    26 1   
    11     4    27 1   
    12     5     6 1   
    13     5    28 1   
    14     5    29 1   
    15     6     7 1   
    16     7     8 2   
    17     7     9 2   
    18     7    10 1   
    19    10    11 ar  
    20    10    21 ar  
    21    11    12 ar  
    22    11    30 1   
    23    12    13 1   
    24    12    19 ar  
    25    13    14 1   
    26    13    31 1   
    27    13    32 1   
    28    14    15 1   
    29    14    33 1   
    30    15    16 1   
    31    15    18 1   
    32    15    34 1   
    33    16    17 1   
    34    16    35 1   
    35    16    36 1   
    36    18    19 1   
    37    18    37 1   
    38    18    38 1   
    39    19    20 ar  
    40    20    21 ar  
    41    20    39 1   
    42    21    40 1   
@<TRIPOS>SUBSTRUCTURE
     1 F21         1 TEMP              0 ****  ****    0 ROOT
