@<TRIPOS>MOLECULE
F21
   40    42     1     0     0
SMALL
abcg2


@<TRIPOS>ATOM
      1 C12          2.5220     1.2290     0.3600 c6         1 F21       0.190800
      2 C13          3.7730     1.9920    -0.0330 c6         1 F21       0.059600
      3 S2           4.3410     1.5600    -1.6960 ss         1 F21      -0.426000
      4 C15          4.4210    -0.2290    -1.4350 c6         1 F21       0.059600
      5 C14          3.1100    -0.7920    -0.9200 c6         1 F21       0.190800
      6 N1           2.7840    -0.2130     0.3860 n3         1 F21      -0.721500
      7 S1           1.8010    -1.1100     1.3750 sy         1 F21       1.156600
      8 O2           2.2540    -2.4880     1.2900 o          1 F21      -0.532500
      9 O1           1.7830    -0.4470     2.6680 o          1 F21      -0.532500
     10 C7           0.1790    -1.0090     0.6790 ca         1 F21      -0.308500
     11 C8          -0.6820    -0.0090     1.1020 ca         1 F21      -0.012000
     12 C9          -1.9350     0.1260     0.5150 ca         1 F21      -0.096300
     13 C1          -2.8720     1.1950     1.0070 c6         1 F21       0.203100
     14 N2          -3.9240     1.4500     0.0460 n7         1 F21      -0.856400
     15 C3          -4.6250     0.2320    -0.3130 c6         1 F21       0.137500
     16 C11         -5.8490     0.5460    -1.1380 c3         1 F21       0.180600
     17 F1          -6.7630     1.2790    -0.3810 f          1 F21      -0.272000
     18 C4          -3.6780    -0.6360    -1.1330 c6         1 F21      -0.037100
     19 C10         -2.3250    -0.7560    -0.4910 ca         1 F21      -0.006300
     20 C5          -1.4430    -1.7570    -0.9010 ca         1 F21      -0.130000
     21 C6          -0.1930    -1.8930    -0.3280 ca         1 F21      -0.017000
     22 H121         1.7100     1.4640    -0.3380 h1         1 F21       0.064950
     23 H122         2.2230     1.5600     1.3530 h1         1 F21       0.064950
     24 H131         3.5540     3.0590    -0.0380 h1         1 F21       0.080700
     25 H132         4.5700     1.8130     0.6910 h1         1 F21       0.080700
     26 H151         4.6530    -0.6820    -2.3990 h1         1 F21       0.080700
     27 H152         5.2310    -0.4670    -0.7440 h1         1 F21       0.080700
     28 H141         3.2230    -1.8690    -0.8170 h1         1 F21       0.064950
     29 H142         2.3090    -0.6000    -1.6450 h1         1 F21       0.064950
     30 H8          -0.3940     0.6720     1.8940 ha         1 F21       0.134000
     31 H11         -3.2590     0.8820     1.9900 h1         1 F21       0.047700
     32 H12         -2.3140     2.1180     1.1760 h1         1 F21       0.047700
     33 HN2         -4.5700     2.1160     0.4510 hn         1 F21       0.429000
     34 H3          -4.9440    -0.3410     0.5750 h1         1 F21       0.042700
     35 H111        -6.3380    -0.3730    -1.4650 h1         1 F21       0.054200
     36 H112        -5.5810     1.1430    -2.0130 h1         1 F21       0.054200
     37 H41         -4.1080    -1.6290    -1.2790 hc         1 F21       0.062200
     38 H42         -3.5550    -0.2010    -2.1310 hc         1 F21       0.062200
     39 H5          -1.7470    -2.4480    -1.6770 ha         1 F21       0.118000
     40 H6           0.4680    -2.6830    -0.6580 ha         1 F21       0.133000
@<TRIPOS>BOND
     1     1     2 1   
     2     1     6 1   
     3     1    22 1   
     4     1    23 1   
     5     2     3 1   
     6     2    24 1   
     7     2    25 1   
     8     3     4 1   
     9     4     5 1   
    10     4    26 1   
    11     4    27 1   
    12     5     6 1   
    13     5    28 1   
    14     5    29 1   
    15     6     7 1   
    16     7     8 2   
    17     7     9 2   
    18     7    10 1   
    19    10    11 ar  
    20    10    21 ar  
    21    11    12 ar  
    22    11    30 1   
    23    12    13 1   
    24    12    19 ar  
    25    13    14 1   
    26    13    31 1   
    27    13    32 1   
    28    14    15 1   
    29    14    33 1   
    30    15    16 1   
    31    15    18 1   
    32    15    34 1   
    33    16    17 1   
    34    16    35 1   
    35    16    36 1   
    36    18    19 1   
    37    18    37 1   
    38    18    38 1   
    39    19    20 ar  
    40    20    21 ar  
    41    20    39 1   
    42    21    40 1   
@<TRIPOS>SUBSTRUCTURE
     1 F21         1 TEMP              0 ****  ****    0 ROOT
