@<TRIPOS>MOLECULE
F22
   55    54     1     0     0
SMALL
abcg2


@<TRIPOS>ATOM
      1 C1          10.1620     0.9360     0.4260 c          1 F22       0.717000
      2 O1          11.1670     0.2410     0.6840 o          1 F22      -0.741000
      3 O2           9.9750     2.1200     0.7670 o          1 F22      -0.741000
      4 C2           9.0620     0.2420    -0.3980 c3         1 F22      -0.202400
      5 C3           7.8150     1.0780    -0.6690 c3         1 F22      -0.038200
      6 C4           6.8560     0.3600    -1.5660 c2         1 F22      -0.169200
      7 C5           5.6060    -0.0200    -1.3040 c2         1 F22      -0.275200
      8 C6           4.8280     0.2100    -0.0390 c3         1 F22      -0.007000
      9 C7           3.7520     1.2320    -0.2640 c2         1 F22      -0.178200
     10 C8           2.4360     1.0300    -0.3140 c2         1 F22      -0.253200
     11 C9           1.7010    -0.2660    -0.1270 c3         1 F22      -0.008000
     12 C10          0.9270    -0.2510     1.1610 c2         1 F22      -0.193200
     13 C11         -0.3900    -0.1190     1.3090 c2         1 F22      -0.236200
     14 C12         -1.4170     0.0150     0.2220 c3         1 F22      -0.011000
     15 C13         -2.3040    -1.1950     0.1670 c2         1 F22      -0.200200
     16 C14         -3.6110    -1.2520     0.4190 c2         1 F22      -0.228200
     17 C15         -4.5120    -0.1080     0.7900 c3         1 F22      -0.010000
     18 C16         -5.3010     0.3400    -0.4070 c2         1 F22      -0.205200
     19 C17         -6.6110     0.2140    -0.6160 c2         1 F22      -0.222200
     20 C18         -7.6380    -0.3740     0.3080 c3         1 F22      -0.010000
     21 C19         -8.5700     0.6970     0.8020 c2         1 F22      -0.209200
     22 C20         -9.8160     0.9300     0.3930 c2         1 F22      -0.222200
     23 C21        -10.6000     0.1680    -0.6290 c3         1 F22      -0.043200
     24 C22        -11.8780    -0.4290    -0.0440 c3         1 F22      -0.085100
     25 H2C1         9.5010    -0.0820    -1.3490 hc         1 F22       0.017700
     26 H2C2         8.7770    -0.6850     0.1120 hc         1 F22       0.017700
     27 H3C1         7.3440     1.3620     0.2730 hc         1 F22       0.049700
     28 H3C2         8.1130     2.0130    -1.1510 hc         1 F22       0.049700
     29 H4           7.2510     0.1110    -2.5490 ha         1 F22       0.151000
     30 H5           5.0560    -0.5320    -2.0870 ha         1 F22       0.145000
     31 H6C1         4.4030    -0.7370     0.3010 hc         1 F22       0.051200
     32 H6C2         5.4850     0.5580     0.7610 hc         1 F22       0.051200
     33 H7           4.1130     2.2430    -0.4290 ha         1 F22       0.171000
     34 H8           1.7990     1.8910    -0.4930 ha         1 F22       0.158000
     35 H9C1         1.0330    -0.4210    -0.9780 hc         1 F22       0.047700
     36 H9C2         2.3940    -1.1100    -0.1190 hc         1 F22       0.047700
     37 H10          1.5330    -0.3310     2.0590 ha         1 F22       0.172000
     38 H11         -0.7900    -0.1190     2.3200 ha         1 F22       0.163000
     39 H121        -2.0050     0.9200     0.3930 hc         1 F22       0.049700
     40 H122        -0.9360     0.1440    -0.7500 hc         1 F22       0.049700
     41 H13         -1.8010    -2.1180    -0.1070 ha         1 F22       0.169000
     42 H14         -4.1070    -2.2120     0.3140 ha         1 F22       0.165000
     43 H15         -5.1710    -0.4170     1.6030 hc         1 F22       0.049700
     44 H16         -4.7080     0.7960    -1.1940 ha         1 F22       0.169000
     45 H171        -7.0090     0.5960    -1.5520 ha         1 F22       0.166000
     46 H172        -3.9310     0.7360     1.1690 hc         1 F22       0.049700
     47 H181        -8.1900    -1.1530    -0.2240 hc         1 F22       0.049700
     48 H182        -7.1620    -0.8590     1.1620 hc         1 F22       0.049700
     49 H19         -8.1450     1.3610     1.5500 ha         1 F22       0.168000
     50 H20        -10.3460     1.7630     0.8500 ha         1 F22       0.163000
     51 H211       -10.8690     0.8480    -1.4440 hc         1 F22       0.043200
     52 H212        -9.9950    -0.6200    -1.0800 hc         1 F22       0.043200
     53 H221       -12.4680    -0.9240    -0.8160 hc         1 F22       0.031033
     54 H222       -11.6510    -1.1650     0.7280 hc         1 F22       0.031033
     55 H223       -12.5040     0.3430     0.4070 hc         1 F22       0.031033
@<TRIPOS>BOND
     1     1     2 1   
     2     1     3 1   
     3     1     4 1   
     4     4     5 1   
     5     4    25 1   
     6     4    26 1   
     7     5     6 1   
     8     5    27 1   
     9     5    28 1   
    10     6     7 2   
    11     6    29 1   
    12     7     8 1   
    13     7    30 1   
    14     8     9 1   
    15     8    31 1   
    16     8    32 1   
    17     9    10 2   
    18     9    33 1   
    19    10    11 1   
    20    10    34 1   
    21    11    12 1   
    22    11    35 1   
    23    11    36 1   
    24    12    13 2   
    25    12    37 1   
    26    13    14 1   
    27    13    38 1   
    28    14    15 1   
    29    14    39 1   
    30    14    40 1   
    31    15    16 2   
    32    15    41 1   
    33    16    17 1   
    34    16    42 1   
    35    17    18 1   
    36    17    43 1   
    37    17    46 1   
    38    18    19 2   
    39    18    44 1   
    40    19    20 1   
    41    19    45 1   
    42    20    21 1   
    43    20    47 1   
    44    20    48 1   
    45    21    22 2   
    46    21    49 1   
    47    22    23 1   
    48    22    50 1   
    49    23    24 1   
    50    23    51 1   
    51    23    52 1   
    52    24    53 1   
    53    24    54 1   
    54    24    55 1   
@<TRIPOS>SUBSTRUCTURE
     1 F22         1 TEMP              0 ****  ****    0 ROOT
