@<TRIPOS>MOLECULE
F22
   55    54     1     0     0
SMALL
No Charge or Current Charge


@<TRIPOS>ATOM
      1 C1           8.9790    -1.1300    -0.9330 c          1 F22       0.717000
      2 O1           8.4840    -2.0700    -0.3300 o          1 F22      -0.741000
      3 O2          10.1840    -0.9720    -1.0660 o          1 F22      -0.741000
      4 C2           8.0380    -0.0550    -1.5040 c3         1 F22      -0.202400
      5 C3           7.7870     1.0470    -0.4490 c3         1 F22      -0.038200
      6 C4           6.8770     2.1450    -0.9710 c2         1 F22      -0.169200
      7 C5           5.5390     2.2230    -0.8520 c2         1 F22      -0.275200
      8 C6           4.6050     1.2170    -0.2040 c3         1 F22      -0.007000
      9 C7           3.8480     1.8510     0.9480 c2         1 F22      -0.178200
     10 C8           2.6060     1.5480     1.3660 c2         1 F22      -0.253200
     11 C9           1.6800     0.4890     0.7960 c3         1 F22      -0.008000
     12 C10          0.9310    -0.2300     1.9030 c2         1 F22      -0.193200
     13 C11         -0.3350    -0.6860     1.8650 c2         1 F22      -0.236200
     14 C12         -1.3050    -0.6060     0.7000 c3         1 F22      -0.011000
     15 C13         -2.1530    -1.8610     0.6120 c2         1 F22      -0.200200
     16 C14         -3.4480    -1.9440     0.2570 c2         1 F22      -0.228200
     17 C15         -4.3600    -0.8030    -0.1590 c3         1 F22      -0.010000
     18 C16         -5.3150    -1.2430    -1.2530 c2         1 F22      -0.205200
     19 C17         -6.6110    -0.9050    -1.3830 c2         1 F22      -0.222200
     20 C18         -7.4120     0.0110    -0.4780 c3         1 F22      -0.010000
     21 C19         -8.4720     0.7570    -1.2680 c2         1 F22      -0.209200
     22 C20         -9.8040     0.7360    -1.0770 c2         1 F22      -0.222200
     23 C21        -10.5720    -0.0700    -0.0460 c3         1 F22      -0.043200
     24 C22        -10.7490     0.6950     1.2770 c3         1 F22      -0.085100
     25 H2C1         8.5050     0.4510    -2.3590 hc         1 F22       0.017700
     26 H2C2         7.0540    -0.4840    -1.7290 hc         1 F22       0.017700
     27 H3C1         7.3680     0.5910     0.4560 hc         1 F22       0.049700
     28 H3C2         8.7470     1.4820    -0.1440 hc         1 F22       0.049700
     29 H4           7.4150     2.9480    -1.4800 ha         1 F22       0.151000
     30 H5           5.0180     3.0840    -1.2760 ha         1 F22       0.145000
     31 H6C1         3.9070     0.8410    -0.9620 hc         1 F22       0.051200
     32 H6C2         5.1510     0.3400     0.1590 hc         1 F22       0.051200
     33 H7           4.4090     2.6360     1.4610 ha         1 F22       0.171000
     34 H8           2.1780     2.0980     2.2070 ha         1 F22       0.158000
     35 H9C1         0.9790     0.9660     0.1010 hc         1 F22       0.047700
     36 H9C2         2.2430    -0.2470     0.2100 hc         1 F22       0.047700
     37 H10          1.5210    -0.3680     2.8120 ha         1 F22       0.172000
     38 H11         -0.7490    -1.1770     2.7480 ha         1 F22       0.163000
     39 H121        -1.9360     0.2820     0.8240 hc         1 F22       0.049700
     40 H122        -0.7670    -0.4730    -0.2460 hc         1 F22       0.049700
     41 H13         -1.6140    -2.7730     0.8770 ha         1 F22       0.169000
     42 H14         -3.9370    -2.9200     0.2490 ha         1 F22       0.165000
     43 H15         -4.9110    -0.4500     0.7200 hc         1 F22       0.049700
     44 H16         -4.8600    -1.9080    -1.9910 ha         1 F22       0.169000
     45 H171        -7.1860    -1.3070    -2.2210 ha         1 F22       0.166000
     46 H172        -3.7750     0.0500    -0.5200 hc         1 F22       0.049700
     47 H181        -7.8590    -0.5780     0.3310 hc         1 F22       0.049700
     48 H182        -6.7560     0.7410     0.0110 hc         1 F22       0.049700
     49 H19         -8.0560     1.3860    -2.0590 ha         1 F22       0.168000
     50 H20        -10.4450     1.3410    -1.7230 ha         1 F22       0.163000
     51 H211       -11.5610    -0.3320    -0.4430 hc         1 F22       0.043200
     52 H212       -10.0710    -1.0240     0.1580 hc         1 F22       0.043200
     53 H221       -11.3130     0.0910     1.9970 hc         1 F22       0.031033
     54 H222        -9.7730     0.9350     1.7180 hc         1 F22       0.031033
     55 H223       -11.2940     1.6330     1.1120 hc         1 F22       0.031033
@<TRIPOS>BOND
     1     1     2 1   
     2     1     3 1   
     3     1     4 1   
     4     4     5 1   
     5     4    25 1   
     6     4    26 1   
     7     5     6 1   
     8     5    27 1   
     9     5    28 1   
    10     6     7 2   
    11     6    29 1   
    12     7     8 1   
    13     7    30 1   
    14     8     9 1   
    15     8    31 1   
    16     8    32 1   
    17     9    10 2   
    18     9    33 1   
    19    10    11 1   
    20    10    34 1   
    21    11    12 1   
    22    11    35 1   
    23    11    36 1   
    24    12    13 2   
    25    12    37 1   
    26    13    14 1   
    27    13    38 1   
    28    14    15 1   
    29    14    39 1   
    30    14    40 1   
    31    15    16 2   
    32    15    41 1   
    33    16    17 1   
    34    16    42 1   
    35    17    18 1   
    36    17    43 1   
    37    17    46 1   
    38    18    19 2   
    39    18    44 1   
    40    19    20 1   
    41    19    45 1   
    42    20    21 1   
    43    20    47 1   
    44    20    48 1   
    45    21    22 2   
    46    21    49 1   
    47    22    23 1   
    48    22    50 1   
    49    23    24 1   
    50    23    51 1   
    51    23    52 1   
    52    24    53 1   
    53    24    54 1   
    54    24    55 1   
@<TRIPOS>SUBSTRUCTURE
     1 F22         1 TEMP              0 ****  ****    0 ROOT
