@<TRIPOS>MOLECULE
F23
   70    69     1     0     0
SMALL
bcc


@<TRIPOS>ATOM
      1 O1         -12.8160    -1.4080    -0.1000 o          1 F23      -0.849300
      2 O2         -13.8750     0.5460     0.0270 o          1 F23      -0.849300
      3 C1         -12.8470    -0.1640    -0.0240 c          1 F23       0.927600
      4 C2         -11.5060     0.5920     0.0090 c3         1 F23      -0.204400
      5 C3         -10.2510    -0.2650    -0.0110 c3         1 F23      -0.053400
      6 C4          -8.9710     0.5630     0.0090 c3         1 F23      -0.079400
      7 C5          -7.7050    -0.2840    -0.0030 c3         1 F23      -0.075400
      8 C6          -6.4250     0.5440     0.0090 c3         1 F23      -0.075400
      9 C7          -5.1580    -0.3030     0.0020 c3         1 F23      -0.075400
     10 C8          -3.8800     0.5260     0.0050 c3         1 F23      -0.074400
     11 C9          -2.6130    -0.3200     0.0050 c3         1 F23      -0.074400
     12 C10         -1.3350     0.5100     0.0040 c3         1 F23      -0.074400
     13 C11         -0.0680    -0.3360     0.0070 c3         1 F23      -0.074400
     14 C12          1.2110     0.4930     0.0040 c3         1 F23      -0.074400
     15 C13          2.4780    -0.3530     0.0070 c3         1 F23      -0.074400
     16 C14          3.7560     0.4750     0.0010 c3         1 F23      -0.074400
     17 C15          5.0220    -0.3730     0.0030 c3         1 F23      -0.074400
     18 C16          6.3020     0.4530    -0.0030 c3         1 F23      -0.074400
     19 C17          7.5670    -0.3970    -0.0010 c3         1 F23      -0.074400
     20 C18          8.8480     0.4260    -0.0090 c3         1 F23      -0.074400
     21 C19         10.1110    -0.4270    -0.0040 c3         1 F23      -0.074400
     22 C20         11.3950     0.3930    -0.0110 c3         1 F23      -0.074400
     23 C21         12.6540    -0.4640    -0.0070 c3         1 F23      -0.075400
     24 C22         13.9420     0.3500    -0.0080 c3         1 F23      -0.075400
     25 C23         15.1900    -0.5230    -0.0030 c3         1 F23      -0.088100
     26 H2A        -11.4980     1.2340     0.8970 hc         1 F23       0.014700
     27 H2B        -11.4890     1.2870    -0.8390 hc         1 F23       0.014700
     28 H3A        -10.2510    -0.9030    -0.9000 hc         1 F23       0.037700
     29 H3B        -10.2520    -0.9450     0.8460 hc         1 F23       0.037700
     30 H4A         -8.9660     1.2070     0.8960 hc         1 F23       0.023700
     31 H4B         -8.9610     1.2410    -0.8530 hc         1 F23       0.023700
     32 H5A         -7.7100    -0.9310    -0.8880 hc         1 F23       0.033700
     33 H5B         -7.7100    -0.9570     0.8620 hc         1 F23       0.033700
     34 H6A         -6.4220     1.1940     0.8910 hc         1 F23       0.031700
     35 H6B         -6.4190     1.2130    -0.8600 hc         1 F23       0.031700
     36 H7A         -5.1640    -0.9570    -0.8780 hc         1 F23       0.035700
     37 H7B         -5.1620    -0.9680     0.8730 hc         1 F23       0.035700
     38 H8A         -3.8770     1.1840     0.8820 hc         1 F23       0.034700
     39 H8B         -3.8740     1.1880    -0.8680 hc         1 F23       0.034700
     40 H9A         -2.6180    -0.9810    -0.8690 hc         1 F23       0.036200
     41 H9B         -2.6160    -0.9780     0.8820 hc         1 F23       0.036200
     42 H101        -1.3310     1.1720     0.8770 hc         1 F23       0.035700
     43 H102        -1.3300     1.1670    -0.8740 hc         1 F23       0.035700
     44 H111        -0.0710    -0.9990    -0.8660 hc         1 F23       0.036700
     45 H112        -0.0720    -0.9920     0.8850 hc         1 F23       0.036700
     46 H121         1.2150     1.1560     0.8770 hc         1 F23       0.036700
     47 H122         1.2150     1.1500    -0.8740 hc         1 F23       0.036700
     48 H131         2.4710    -1.0180    -0.8640 hc         1 F23       0.036700
     49 H132         2.4740    -1.0080     0.8860 hc         1 F23       0.036700
     50 H141         3.7630     1.1390     0.8730 hc         1 F23       0.036700
     51 H142         3.7600     1.1300    -0.8770 hc         1 F23       0.036700
     52 H151         5.0150    -1.0370    -0.8690 hc         1 F23       0.036700
     53 H152         5.0180    -1.0290     0.8810 hc         1 F23       0.036700
     54 H161         6.3100     1.1160     0.8700 hc         1 F23       0.036700
     55 H162         6.3070     1.1090    -0.8800 hc         1 F23       0.036700
     56 H171         7.5580    -1.0620    -0.8730 hc         1 F23       0.036700
     57 H172         7.5610    -1.0520     0.8780 hc         1 F23       0.036700
     58 H181         8.8570     1.0920     0.8620 hc         1 F23       0.036700
     59 H182         8.8550     1.0800    -0.8880 hc         1 F23       0.036700
     60 H191        10.1010    -1.0930    -0.8740 hc         1 F23       0.036700
     61 H192        10.1030    -1.0810     0.8760 hc         1 F23       0.036700
     62 H201        11.4060     1.0580     0.8600 hc         1 F23       0.036700
     63 H202        11.4030     1.0470    -0.8910 hc         1 F23       0.036700
     64 H211        12.6450    -1.1270    -0.8800 hc         1 F23       0.036700
     65 H212        12.6430    -1.1220     0.8700 hc         1 F23       0.036700
     66 H221        13.9530     1.0110     0.8650 hc         1 F23       0.036700
     67 H222        13.9550     1.0060    -0.8840 hc         1 F23       0.036700
     68 H231        16.1020     0.0750    -0.0030 hc         1 F23       0.031033
     69 H232        15.2160    -1.1650     0.8790 hc         1 F23       0.031033
     70 H233        15.2190    -1.1700    -0.8820 hc         1 F23       0.031033
@<TRIPOS>BOND
     1     1     3 1   
     2     2     3 1   
     3     3     4 1   
     4     4     5 1   
     5     4    26 1   
     6     4    27 1   
     7     5     6 1   
     8     5    28 1   
     9     5    29 1   
    10     6     7 1   
    11     6    30 1   
    12     6    31 1   
    13     7     8 1   
    14     7    32 1   
    15     7    33 1   
    16     8     9 1   
    17     8    34 1   
    18     8    35 1   
    19     9    10 1   
    20     9    36 1   
    21     9    37 1   
    22    10    11 1   
    23    10    38 1   
    24    10    39 1   
    25    11    12 1   
    26    11    40 1   
    27    11    41 1   
    28    12    13 1   
    29    12    42 1   
    30    12    43 1   
    31    13    14 1   
    32    13    44 1   
    33    13    45 1   
    34    14    15 1   
    35    14    46 1   
    36    14    47 1   
    37    15    16 1   
    38    15    48 1   
    39    15    49 1   
    40    16    17 1   
    41    16    50 1   
    42    16    51 1   
    43    17    18 1   
    44    17    52 1   
    45    17    53 1   
    46    18    19 1   
    47    18    54 1   
    48    18    55 1   
    49    19    20 1   
    50    19    56 1   
    51    19    57 1   
    52    20    21 1   
    53    20    58 1   
    54    20    59 1   
    55    21    22 1   
    56    21    60 1   
    57    21    61 1   
    58    22    23 1   
    59    22    62 1   
    60    22    63 1   
    61    23    24 1   
    62    23    64 1   
    63    23    65 1   
    64    24    25 1   
    65    24    66 1   
    66    24    67 1   
    67    25    68 1   
    68    25    69 1   
    69    25    70 1   
@<TRIPOS>SUBSTRUCTURE
     1 F23         1 TEMP              0 ****  ****    0 ROOT
