@<TRIPOS>MOLECULE
F23
   70    69     1     0     0
SMALL
No Charge or Current Charge


@<TRIPOS>ATOM
      1 O1         -13.3860    -0.6770    -1.0370 o          1 F23      -0.744000
      2 O2         -13.3860    -0.5510     1.1120 o          1 F23      -0.744000
      3 C1         -12.9320    -0.2580     0.0170 c          1 F23       0.717000
      4 C2         -11.6830     0.6410    -0.0360 c3         1 F23      -0.204400
      5 C3         -10.3990    -0.2230     0.0150 c3         1 F23      -0.053400
      6 C4          -9.1010     0.6130    -0.0340 c3         1 F23      -0.079400
      7 C5          -7.8220    -0.2520     0.0170 c3         1 F23      -0.075400
      8 C6          -6.5240     0.5840    -0.0320 c3         1 F23      -0.075400
      9 C7          -5.2450    -0.2800     0.0190 c3         1 F23      -0.075400
     10 C8          -3.9480     0.5560    -0.0300 c3         1 F23      -0.074400
     11 C9          -2.6690    -0.3090     0.0210 c3         1 F23      -0.074400
     12 C10         -1.3720     0.5280    -0.0280 c3         1 F23      -0.074400
     13 C11         -0.0930    -0.3370     0.0230 c3         1 F23      -0.074400
     14 C12          1.2040     0.4990    -0.0260 c3         1 F23      -0.074400
     15 C13          2.4830    -0.3660     0.0240 c3         1 F23      -0.074400
     16 C14          3.7800     0.4710    -0.0240 c3         1 F23      -0.074400
     17 C15          5.0590    -0.3940     0.0250 c3         1 F23      -0.074400
     18 C16          6.3570     0.4420    -0.0230 c3         1 F23      -0.074400
     19 C17          7.6350    -0.4230     0.0260 c3         1 F23      -0.074400
     20 C18          8.9330     0.4130    -0.0220 c3         1 F23      -0.074400
     21 C19         10.2110    -0.4520     0.0270 c3         1 F23      -0.074400
     22 C20         11.5090     0.3840    -0.0220 c3         1 F23      -0.074400
     23 C21         12.7870    -0.4810     0.0270 c3         1 F23      -0.075400
     24 C22         14.0850     0.3550    -0.0220 c3         1 F23      -0.075400
     25 C23         15.3610    -0.5080     0.0270 c3         1 F23      -0.088100
     26 H2A        -11.6410     1.2920     0.8460 hc         1 F23       0.014700
     27 H2B        -11.6410     1.1850    -0.9880 hc         1 F23       0.014700
     28 H3A        -10.4050    -0.9270    -0.8270 hc         1 F23       0.037700
     29 H3B        -10.4060    -0.8240     0.9330 hc         1 F23       0.037700
     30 H4A         -9.0930     1.3160     0.8080 hc         1 F23       0.023700
     31 H4B         -9.0930     1.2130    -0.9520 hc         1 F23       0.023700
     32 H5A         -7.8290    -0.9550    -0.8260 hc         1 F23       0.033700
     33 H5B         -7.8290    -0.8520     0.9350 hc         1 F23       0.033700
     34 H6A         -6.5170     1.2870     0.8110 hc         1 F23       0.031700
     35 H6B         -6.5170     1.1850    -0.9500 hc         1 F23       0.031700
     36 H7A         -5.2520    -0.9830    -0.8240 hc         1 F23       0.035700
     37 H7B         -5.2530    -0.8810     0.9370 hc         1 F23       0.035700
     38 H8A         -3.9410     1.2590     0.8130 hc         1 F23       0.034700
     39 H8B         -3.9410     1.1570    -0.9480 hc         1 F23       0.034700
     40 H9A         -2.6760    -1.0110    -0.8220 hc         1 F23       0.036200
     41 H9B         -2.6770    -0.9090     0.9390 hc         1 F23       0.036200
     42 H101        -1.3650     1.2300     0.8150 hc         1 F23       0.035700
     43 H102        -1.3650     1.1280    -0.9460 hc         1 F23       0.035700
     44 H111        -0.1000    -1.0400    -0.8200 hc         1 F23       0.036700
     45 H112        -0.1010    -0.9380     0.9410 hc         1 F23       0.036700
     46 H121         1.2120     1.2020     0.8170 hc         1 F23       0.036700
     47 H122         1.2120     1.1000    -0.9440 hc         1 F23       0.036700
     48 H131         2.4760    -1.0680    -0.8190 hc         1 F23       0.036700
     49 H132         2.4760    -0.9660     0.9420 hc         1 F23       0.036700
     50 H141         3.7880     1.1730     0.8190 hc         1 F23       0.036700
     51 H142         3.7880     1.0720    -0.9420 hc         1 F23       0.036700
     52 H151         5.0520    -1.0970    -0.8180 hc         1 F23       0.036700
     53 H152         5.0520    -0.9950     0.9430 hc         1 F23       0.036700
     54 H161         6.3640     1.1440     0.8200 hc         1 F23       0.036700
     55 H162         6.3640     1.0430    -0.9410 hc         1 F23       0.036700
     56 H171         7.6270    -1.1250    -0.8170 hc         1 F23       0.036700
     57 H172         7.6280    -1.0240     0.9440 hc         1 F23       0.036700
     58 H181         8.9400     1.1150     0.8210 hc         1 F23       0.036700
     59 H182         8.9400     1.0140    -0.9400 hc         1 F23       0.036700
     60 H191        10.2030    -1.1540    -0.8160 hc         1 F23       0.036700
     61 H192        10.2040    -1.0530     0.9450 hc         1 F23       0.036700
     62 H201        11.5170     1.0860     0.8220 hc         1 F23       0.036700
     63 H202        11.5160     0.9850    -0.9390 hc         1 F23       0.036700
     64 H211        12.7800    -1.1830    -0.8160 hc         1 F23       0.036700
     65 H212        12.7810    -1.0830     0.9450 hc         1 F23       0.036700
     66 H221        14.0980     1.0560     0.8220 hc         1 F23       0.036700
     67 H222        14.0960     0.9560    -0.9390 hc         1 F23       0.036700
     68 H231        16.2540     0.1280    -0.0100 hc         1 F23       0.031033
     69 H232        15.3970    -1.0970     0.9510 hc         1 F23       0.031033
     70 H233        15.3950    -1.1980    -0.8250 hc         1 F23       0.031033
@<TRIPOS>BOND
     1     1     3 1   
     2     2     3 1   
     3     3     4 1   
     4     4     5 1   
     5     4    26 1   
     6     4    27 1   
     7     5     6 1   
     8     5    28 1   
     9     5    29 1   
    10     6     7 1   
    11     6    30 1   
    12     6    31 1   
    13     7     8 1   
    14     7    32 1   
    15     7    33 1   
    16     8     9 1   
    17     8    34 1   
    18     8    35 1   
    19     9    10 1   
    20     9    36 1   
    21     9    37 1   
    22    10    11 1   
    23    10    38 1   
    24    10    39 1   
    25    11    12 1   
    26    11    40 1   
    27    11    41 1   
    28    12    13 1   
    29    12    42 1   
    30    12    43 1   
    31    13    14 1   
    32    13    44 1   
    33    13    45 1   
    34    14    15 1   
    35    14    46 1   
    36    14    47 1   
    37    15    16 1   
    38    15    48 1   
    39    15    49 1   
    40    16    17 1   
    41    16    50 1   
    42    16    51 1   
    43    17    18 1   
    44    17    52 1   
    45    17    53 1   
    46    18    19 1   
    47    18    54 1   
    48    18    55 1   
    49    19    20 1   
    50    19    56 1   
    51    19    57 1   
    52    20    21 1   
    53    20    58 1   
    54    20    59 1   
    55    21    22 1   
    56    21    60 1   
    57    21    61 1   
    58    22    23 1   
    59    22    62 1   
    60    22    63 1   
    61    23    24 1   
    62    23    64 1   
    63    23    65 1   
    64    24    25 1   
    65    24    66 1   
    66    24    67 1   
    67    25    68 1   
    68    25    69 1   
    69    25    70 1   
@<TRIPOS>SUBSTRUCTURE
     1 F23         1 TEMP              0 ****  ****    0 ROOT
