@<TRIPOS>MOLECULE
F24
   52    51     1     0     0
SMALL
abcg2


@<TRIPOS>ATOM
      1 C1           6.6790    -0.1600     0.4350 c3         1 F24      -0.221700
      2 O1          -8.5830     0.9570     0.0550 o          1 F24      -0.727500
      3 C2           5.4220    -0.6990    -0.2850 c3         1 F24       0.180300
      4 O2           6.6690     2.2050     0.8860 o          1 F24      -0.512100
      5 C3          -8.0890    -0.1350     0.4090 c          1 F24       0.697200
      6 C4           7.9180    -0.9420     0.0290 c3         1 F24       0.170600
      7 O4          -8.6920    -1.0440     1.0210 o          1 F24      -0.727500
      8 C5           4.1380    -0.0860     0.2600 c3         1 F24      -0.114400
      9 O5           9.0160    -0.3860     0.7170 oh         1 F24      -0.667000
     10 C6          -6.6410    -0.4390     0.1080 ce         1 F24      -0.220200
     11 O6           5.5250    -0.5830    -1.6890 oh         1 F24      -0.662000
     12 C7          -3.7800    -0.6260     1.5890 c3         1 F24      -0.041900
     13 C8           6.9050     1.2950     0.1300 c          1 F24       0.588900
     14 C9          -5.7640     0.2310    -0.6580 cf         1 F24      -0.142200
     15 C10          2.8760    -0.7190    -0.3140 c3         1 F24      -0.074400
     16 C11          1.6000    -0.1120     0.2550 c3         1 F24      -0.075400
     17 C12         -4.3820    -0.2490    -0.8240 cf         1 F24      -0.136000
     18 C13         -1.1940     1.2600    -0.2040 c3         1 F24      -0.084100
     19 C16         -2.1280    -1.0830    -0.2870 c3         1 F24      -0.027200
     20 C18         -0.9750    -0.1930     0.2030 c3         1 F24      -0.055700
     21 C20          0.3460    -0.7460    -0.3340 c3         1 F24      -0.074400
     22 C21         -6.0600     1.4680    -1.4580 c3         1 F24      -0.032900
     23 H1           6.5110    -0.2700     1.5100 hc         1 F24       0.089700
     24 H2           5.3930    -1.7750    -0.0790 h1         1 F24       0.071700
     25 H4           7.7710    -2.0010     0.2780 h1         1 F24       0.031200
     26 H4A          8.0520    -0.8810    -1.0580 h1         1 F24       0.031200
     27 H5           4.1400    -0.1990     1.3480 hc         1 F24       0.052700
     28 H5A          4.1230     0.9950     0.0730 hc         1 F24       0.052700
     29 HO5          9.8200    -0.8070     0.3990 ho         1 F24       0.445000
     30 H6          -6.2810    -1.3540     0.5690 ha         1 F24       0.147000
     31 HO6          5.2150     0.2870    -1.9610 ho         1 F24       0.445000
     32 H7          -3.8580    -1.6480     1.9700 hc         1 F24       0.034700
     33 H7A         -2.9600    -0.1560     2.1350 hc         1 F24       0.034700
     34 H7B         -4.7020    -0.1090     1.8450 hc         1 F24       0.034700
     35 H8           7.3080     1.4980    -0.8800 h4         1 F24      -0.017800
     36 H10          2.8650    -0.6090    -1.4030 hc         1 F24       0.041700
     37 H10A         2.8890    -1.7960    -0.1180 hc         1 F24       0.041700
     38 H11          1.5900    -0.2300     1.3450 hc         1 F24       0.039200
     39 H11A         1.6040     0.9660     0.0670 hc         1 F24       0.039200
     40 H12         -4.0230    -0.2350    -1.8530 ha         1 F24       0.144000
     41 H13         -2.1150     1.6620     0.2210 hc         1 F24       0.032367
     42 H13A        -0.3760     1.9010     0.1250 hc         1 F24       0.032367
     43 H13B        -1.2720     1.3480    -1.2910 hc         1 F24       0.032367
     44 H16         -1.9630    -2.0990     0.0930 hc         1 F24       0.030700
     45 H16A        -2.0720    -1.1490    -1.3780 hc         1 F24       0.030700
     46 H18         -0.9340    -0.2450     1.2980 hc         1 F24       0.044700
     47 H20          0.3620    -0.6340    -1.4250 hc         1 F24       0.034200
     48 H20A         0.3800    -1.8250    -0.1440 hc         1 F24       0.034200
     49 H21         -5.5190     2.3220    -1.0430 hc         1 F24       0.031367
     50 H21A        -5.6990     1.3460    -2.4830 hc         1 F24       0.031367
     51 H21B        -7.1170     1.7060    -1.4730 hc         1 F24       0.031367
     52 C14         -3.5060    -0.6290     0.1160 c2         1 F24      -0.165400
@<TRIPOS>BOND
     1     1     3 1   
     2     1     6 1   
     3     1    13 1   
     4     1    23 1   
     5     2     5 1   
     6     3     8 1   
     7     3    11 1   
     8     3    24 1   
     9     4    13 2   
    10     5     7 1   
    11     5    10 1   
    12     6     9 1   
    13     6    25 1   
    14     6    26 1   
    15     8    15 1   
    16     8    27 1   
    17     8    28 1   
    18     9    29 1   
    19    10    14 2   
    20    10    30 1   
    21    11    31 1   
    22    12    32 1   
    23    12    33 1   
    24    12    34 1   
    25    12    52 1   
    26    13    35 1   
    27    14    17 1   
    28    14    22 1   
    29    15    16 1   
    30    15    36 1   
    31    15    37 1   
    32    16    21 1   
    33    16    38 1   
    34    16    39 1   
    35    17    40 1   
    36    17    52 2   
    37    18    20 1   
    38    18    41 1   
    39    18    42 1   
    40    18    43 1   
    41    19    20 1   
    42    19    44 1   
    43    19    45 1   
    44    19    52 1   
    45    20    21 1   
    46    20    46 1   
    47    21    47 1   
    48    21    48 1   
    49    22    49 1   
    50    22    50 1   
    51    22    51 1   
@<TRIPOS>SUBSTRUCTURE
     1 F24         1 TEMP              0 ****  ****    0 ROOT
