@<TRIPOS>MOLECULE
F24
   52    51     1     0     0
SMALL
No Charge or Current Charge


@<TRIPOS>ATOM
      1 C1           6.7260    -0.0160     0.5190 c3         1 F24      -0.221700
      2 O1          -8.5910     0.9980     0.4470 o          1 F24      -0.727500
      3 C2           5.5160    -0.7080    -0.1500 c3         1 F24       0.180300
      4 O2           6.7840     2.4110     0.6380 o          1 F24      -0.512100
      5 C3          -8.0730    -0.0810     0.6870 c          1 F24       0.697200
      6 C4           8.0180    -0.8420     0.3760 c3         1 F24       0.170600
      7 O4          -8.6570    -0.9760     1.2780 o          1 F24      -0.727500
      8 C5           4.1720     0.0170     0.1200 c3         1 F24      -0.114400
      9 O5           9.0690    -0.2180     1.1180 oh         1 F24      -0.667000
     10 C6          -6.6610    -0.3620     0.2590 ce         1 F24      -0.220200
     11 O6           5.7400    -0.7760    -1.5610 oh         1 F24      -0.662000
     12 C7          -3.7940    -1.1160     1.4590 c3         1 F24      -0.041900
     13 C8           6.9340     1.3960    -0.0340 c          1 F24       0.588900
     14 C9          -5.7750     0.4330    -0.4270 cf         1 F24      -0.142200
     15 C10          2.9240    -0.7490    -0.3830 c3         1 F24      -0.074400
     16 C11          1.6000    -0.0340    -0.0350 c3         1 F24      -0.075400
     17 C12         -4.4250    -0.0220    -0.7730 cf         1 F24      -0.136000
     18 C13         -1.2260     1.2440    -0.6620 c3         1 F24      -0.084100
     19 C16         -2.1810    -1.1390    -0.5030 c3         1 F24      -0.027200
     20 C18         -1.0140    -0.1890    -0.1090 c3         1 F24      -0.055700
     21 C20          0.3510    -0.7970    -0.5410 c3         1 F24      -0.074400
     22 C21         -6.1200     1.8230    -0.9440 c3         1 F24      -0.032900
     23 H1           6.5040     0.0810     1.5880 hc         1 F24       0.089700
     24 H2           5.4370    -1.7240     0.2680 h1         1 F24       0.071700
     25 H4           7.8410    -1.8580     0.7550 h1         1 F24       0.031200
     26 H4A          8.2950    -0.9230    -0.6840 h1         1 F24       0.031200
     27 H5           4.0700     0.1710     1.2020 hc         1 F24       0.052700
     28 H5A          4.1890     1.0130    -0.3380 hc         1 F24       0.052700
     29 HO5          9.8580    -0.8010     1.0440 ho         1 F24       0.445000
     30 H6          -6.3290    -1.3580     0.5370 ha         1 F24       0.147000
     31 HO6          4.9970    -1.2880    -1.9460 ho         1 F24       0.445000
     32 H7          -4.1600    -2.1480     1.5180 hc         1 F24       0.034700
     33 H7A         -2.8780    -1.0590     2.0590 hc         1 F24       0.034700
     34 H7B         -4.5270    -0.4670     1.9500 hc         1 F24       0.034700
     35 H8           7.2470     1.4600    -1.1000 h4         1 F24      -0.017800
     36 H10          2.9810    -0.8750    -1.4710 hc         1 F24       0.041700
     37 H10A         2.9160    -1.7540     0.0580 hc         1 F24       0.041700
     38 H11          1.5320     0.0880     1.0540 hc         1 F24       0.039200
     39 H11A         1.6220     0.9710    -0.4720 hc         1 F24       0.039200
     40 H12         -4.0890     0.2520    -1.7750 ha         1 F24       0.144000
     41 H13         -2.1840     1.6580    -0.3250 hc         1 F24       0.032367
     42 H13A        -0.4450     1.9270    -0.3130 hc         1 F24       0.032367
     43 H13B        -1.2200     1.2440    -1.7590 hc         1 F24       0.032367
     44 H16         -1.9600    -2.1510    -0.1380 hc         1 F24       0.030700
     45 H16A        -2.2040    -1.2250    -1.5970 hc         1 F24       0.030700
     46 H18         -1.0020    -0.1160     0.9860 hc         1 F24       0.044700
     47 H20          0.3890    -0.8600    -1.6360 hc         1 F24       0.034200
     48 H20A         0.4090    -1.8270    -0.1680 hc         1 F24       0.034200
     49 H21         -6.3640     2.5030    -0.1190 hc         1 F24       0.031367
     50 H21A        -5.2870     2.2780    -1.4950 hc         1 F24       0.031367
     51 H21B        -6.9780     1.7930    -1.6260 hc         1 F24       0.031367
     52 C14         -3.5500    -0.7070     0.0110 c2         1 F24      -0.165400
@<TRIPOS>BOND
     1     1     3 1   
     2     1     6 1   
     3     1    13 1   
     4     1    23 1   
     5     2     5 1   
     6     3     8 1   
     7     3    11 1   
     8     3    24 1   
     9     4    13 2   
    10     5     7 1   
    11     5    10 1   
    12     6     9 1   
    13     6    25 1   
    14     6    26 1   
    15     8    15 1   
    16     8    27 1   
    17     8    28 1   
    18     9    29 1   
    19    10    14 2   
    20    10    30 1   
    21    11    31 1   
    22    12    32 1   
    23    12    33 1   
    24    12    34 1   
    25    12    52 1   
    26    13    35 1   
    27    14    17 1   
    28    14    22 1   
    29    15    16 1   
    30    15    36 1   
    31    15    37 1   
    32    16    21 1   
    33    16    38 1   
    34    16    39 1   
    35    17    40 1   
    36    17    52 2   
    37    18    20 1   
    38    18    41 1   
    39    18    42 1   
    40    18    43 1   
    41    19    20 1   
    42    19    44 1   
    43    19    45 1   
    44    19    52 1   
    45    20    21 1   
    46    20    46 1   
    47    21    47 1   
    48    21    48 1   
    49    22    49 1   
    50    22    50 1   
    51    22    51 1   
@<TRIPOS>SUBSTRUCTURE
     1 F24         1 TEMP              0 ****  ****    0 ROOT
