@<TRIPOS>MOLECULE
F25
   59    63     1     0     0
SMALL
No Charge or Current Charge


@<TRIPOS>ATOM
      1 O21          0.4570    -0.9780     2.2540 o          1 F25      -0.523000
      2 C20         -0.4740    -1.1230     1.4740 c          1 F25       0.576000
      3 N19         -1.6040    -0.3010     1.4360 n          1 F25      -0.419800
      4 C23         -1.5650     1.0330     2.0580 c3         1 F25       0.156300
      5 C24         -0.7060     2.0050     1.2610 ca         1 F25      -0.138300
      6 C32         -1.1630     2.4960     0.0210 ca         1 F25      -0.071500
      7 C31         -0.3590     3.3710    -0.7300 ca         1 F25      -0.155500
      8 C30          0.8980     3.7580    -0.2430 ca         1 F25       0.177000
      9 F29          1.6720     4.5950    -0.9670 f          1 F25      -0.178000
     10 C26          1.3590     3.2750     0.9910 ca         1 F25      -0.155500
     11 C25          0.5600     2.3960     1.7420 ca         1 F25      -0.071500
     12 C17         -2.8060    -0.8910     0.8030 c5         1 F25       0.062700
     13 C16         -2.1560    -1.9750    -0.1180 c5         1 F25      -0.109700
     14 C15         -1.7070    -1.2370    -1.4200 c5         1 F25       0.172500
     15 N11         -0.5710    -2.0440    -1.8990 n3         1 F25      -0.722600
     16 C12         -1.1770    -3.2420    -2.5360 c5         1 F25       0.166800
     17 C13         -2.2290    -2.5530    -3.4380 c5         1 F25      -0.081400
     18 C14         -2.8050    -1.4260    -2.5180 c5         1 F25      -0.081400
     19 C10          0.2110    -2.4410    -0.6860 c5         1 F25       0.254800
     20 C7           1.4720    -1.5800    -0.4770 ca         1 F25      -0.071300
     21 C8           2.5930    -2.1540     0.1570 ca         1 F25      -0.087500
     22 C9           3.7710    -1.4140     0.3540 ca         1 F25      -0.100500
     23 C4           3.8630    -0.0790    -0.0830 ca         1 F25      -0.129300
     24 C5           2.7450     0.5010    -0.7220 ca         1 F25      -0.100500
     25 C6           1.5660    -0.2400    -0.9160 ca         1 F25      -0.087500
     26 C3           5.1650     0.6880     0.1260 c3         1 F25       0.442000
     27 N1           5.0050     1.9690     0.6590 n8         1 F25      -1.006200
     28 N2           5.7100     1.1700    -1.0790 n8         1 F25      -1.006200
     29 C22         -0.7820    -2.3030     0.5410 c5         1 F25      -0.174700
     30 C18         -3.7830    -1.4830     1.8530 c3         1 F25       0.158300
     31 F33         -4.2850    -0.5210     2.6620 f          1 F25      -0.121000
     32 F32         -4.8390    -2.0790     1.2530 f          1 F25      -0.121000
     33 H231        -2.5860     1.4320     2.1250 h1         1 F25       0.074200
     34 H232        -1.1840     0.9440     3.0840 h1         1 F25       0.074200
     35 H25         -2.1360     2.1950    -0.3610 ha         1 F25       0.126000
     36 H26         -0.7080     3.7480    -1.6880 ha         1 F25       0.135000
     37 H28          2.3350     3.5760     1.3610 ha         1 F25       0.135000
     38 H29          0.9280     2.0120     2.6910 ha         1 F25       0.126000
     39 H17         -3.3590    -0.1430     0.2170 h1         1 F25       0.091700
     40 H16         -2.7870    -2.8550    -0.2880 hc         1 F25       0.080700
     41 H15         -1.4410    -0.1830    -1.2520 h1         1 F25       0.079700
     42 H121        -1.6460    -3.9300    -1.8190 h1         1 F25       0.039200
     43 H122        -0.4450    -3.8150    -3.1210 h1         1 F25       0.039200
     44 H131        -2.9990    -3.2490    -3.7860 hc         1 F25       0.055200
     45 H132        -1.7520    -2.1250    -4.3270 hc         1 F25       0.055200
     46 H142        -2.9600    -0.5020    -3.0860 hc         1 F25       0.051700
     47 H141        -3.7790    -1.6980    -2.0950 hc         1 F25       0.051700
     48 H10          0.5350    -3.4880    -0.7760 h1         1 F25       0.056700
     49 H8           2.5490    -3.1850     0.5030 ha         1 F25       0.116000
     50 H9           4.6200    -1.8840     0.8460 ha         1 F25       0.118000
     51 H5           2.7860     1.5280    -1.0770 ha         1 F25       0.118000
     52 H6           0.7300     0.2380    -1.4160 ha         1 F25       0.116000
     53 H33          5.9130     0.1260     0.7020 h2         1 F25       0.025700
     54 H12          5.8980     2.4200     0.4640 hn         1 F25       0.407250
     55 HN1          4.3580     2.4350     0.0290 hn         1 F25       0.407250
     56 H23          6.4580     0.5290    -1.3580 hn         1 F25       0.407250
     57 HN2          4.9950     1.0460    -1.7990 hn         1 F25       0.407250
     58 H22         -0.7810    -3.2170     1.1440 hc         1 F25       0.085700
     59 H18         -3.2600    -2.2240     2.4670 h2         1 F25       0.065700
@<TRIPOS>BOND
     1     1     2 2   
     2     2     3 1   
     3     2    29 1   
     4     3     4 1   
     5     3    12 1   
     6     4     5 1   
     7     4    33 1   
     8     4    34 1   
     9     5     6 ar  
    10     5    11 ar  
    11     6     7 ar  
    12     6    35 1   
    13     7     8 ar  
    14     7    36 1   
    15     8     9 1   
    16     8    10 ar  
    17    10    11 ar  
    18    10    37 1   
    19    11    38 1   
    20    12    13 1   
    21    12    30 1   
    22    12    39 1   
    23    13    14 1   
    24    13    29 1   
    25    13    40 1   
    26    14    15 1   
    27    14    18 1   
    28    14    41 1   
    29    15    16 1   
    30    15    19 1   
    31    16    17 1   
    32    16    42 1   
    33    16    43 1   
    34    17    18 1   
    35    17    44 1   
    36    17    45 1   
    37    18    46 1   
    38    18    47 1   
    39    19    20 1   
    40    19    29 1   
    41    19    48 1   
    42    20    21 ar  
    43    20    25 ar  
    44    21    22 ar  
    45    21    49 1   
    46    22    23 ar  
    47    22    50 1   
    48    23    24 ar  
    49    23    26 1   
    50    24    25 ar  
    51    24    51 1   
    52    25    52 1   
    53    26    27 1   
    54    26    28 1   
    55    26    53 1   
    56    27    54 1   
    57    27    55 1   
    58    28    56 1   
    59    28    57 1   
    60    29    58 1   
    61    30    31 1   
    62    30    32 1   
    63    30    59 1   
@<TRIPOS>SUBSTRUCTURE
     1 F25         1 TEMP              0 ****  ****    0 ROOT
