@<TRIPOS>MOLECULE
F25
   59    63     1     0     0
SMALL
bcc


@<TRIPOS>ATOM
      1 O21          0.6300    -0.8330     2.1910 o          1 F25      -0.598500
      2 C20         -0.3910    -0.9840     1.5520 c          1 F25       0.718500
      3 N19         -1.4530    -0.1350     1.5750 n          1 F25      -0.486800
      4 C23         -1.3780     1.1990     2.1390 c3         1 F25       0.156300
      5 C24         -1.0460     2.2150     1.0760 ca         1 F25      -0.138300
      6 C32         -2.0220     3.0690     0.5760 ca         1 F25      -0.089500
      7 C31         -1.7370     3.9720    -0.4420 ca         1 F25      -0.173500
      8 C30         -0.4550     4.0030    -0.9500 ca         1 F25       0.141900
      9 F29         -0.1650     4.8700    -1.9350 f          1 F25      -0.142900
     10 C26          0.5450     3.1730    -0.4760 ca         1 F25      -0.173500
     11 C25          0.2400     2.2820     0.5400 ca         1 F25      -0.089500
     12 C17         -2.6000    -0.6070     0.8380 c5         1 F25       0.062700
     13 C16         -2.0210    -1.7100    -0.0510 c5         1 F25      -0.109700
     14 C15         -1.5600    -1.1900    -1.4170 c5         1 F25       0.172500
     15 N11         -0.4020    -2.0060    -1.7620 n3         1 F25      -0.722600
     16 C12         -0.8680    -3.0640    -2.6470 c5         1 F25       0.166800
     17 C13         -1.8430    -2.3200    -3.5460 c5         1 F25      -0.081400
     18 C14         -2.5610    -1.3770    -2.5690 c5         1 F25      -0.081400
     19 C10          0.2840    -2.4170    -0.5480 c5         1 F25       0.254800
     20 C7           1.6300    -1.7480    -0.3980 ca         1 F25      -0.071300
     21 C8           2.6410    -2.3600     0.3360 ca         1 F25      -0.105500
     22 C9           3.8740    -1.7510     0.4920 ca         1 F25      -0.118500
     23 C4           4.1320    -0.4980    -0.0610 ca         1 F25      -0.129300
     24 C5           3.1180     0.1160    -0.7860 ca         1 F25      -0.118500
     25 C6           1.8880    -0.5060    -0.9600 ca         1 F25      -0.105500
     26 C3           5.4720     0.1690     0.1950 c3         1 F25       0.442000
     27 N1           5.5520     0.7930     1.5080 n8         1 F25      -0.895800
     28 N2           5.7310     1.1980    -0.7900 n8         1 F25      -0.895800
     29 C22         -0.7210    -2.1380     0.6260 c5         1 F25      -0.174700
     30 C18         -3.6580    -1.1610     1.7770 c3         1 F25       0.400900
     31 F33         -4.1310    -0.1890     2.6080 f          1 F25      -0.242300
     32 F32         -4.7240    -1.5940     1.0490 f          1 F25      -0.242300
     33 H231        -2.3230     1.4520     2.6160 h1         1 F25       0.074200
     34 H232        -0.6220     1.1940     2.9250 h1         1 F25       0.074200
     35 H25         -3.0260     3.0350     0.9830 ha         1 F25       0.144000
     36 H26         -2.5010     4.6330    -0.8300 ha         1 F25       0.153000
     37 H28          1.5440     3.2250    -0.8900 ha         1 F25       0.153000
     38 H29          1.0180     1.6270     0.9140 ha         1 F25       0.144000
     39 H17         -3.0460     0.2020     0.2460 h1         1 F25       0.091700
     40 H16         -2.7170    -2.5400    -0.1790 hc         1 F25       0.080700
     41 H15         -1.2580    -0.1390    -1.3140 h1         1 F25       0.079700
     42 H121        -1.3860    -3.8730    -2.1090 h1         1 F25       0.039200
     43 H122        -0.0370    -3.5140    -3.1930 h1         1 F25       0.039200
     44 H131        -2.5250    -2.9900    -4.0680 hc         1 F25       0.055200
     45 H132        -1.2960    -1.7460    -4.2950 hc         1 F25       0.055200
     46 H142        -2.8380    -0.4310    -3.0290 hc         1 F25       0.051700
     47 H141        -3.4820    -1.8330    -2.2010 hc         1 F25       0.051700
     48 H10          0.4510    -3.4980    -0.5810 h1         1 F25       0.056700
     49 H8           2.4680    -3.3370     0.7750 ha         1 F25       0.134000
     50 H9           4.6520    -2.2590     1.0520 ha         1 F25       0.136000
     51 H5           3.2910     1.0880    -1.2300 ha         1 F25       0.136000
     52 H6           1.1250    -0.0090    -1.5440 ha         1 F25       0.134000
     53 H33          6.2360    -0.6230     0.1920 h2         1 F25       0.025700
     54 H12          4.7130     1.3380     1.6750 hn         1 F25       0.352050
     55 HN1          5.5730     0.0780     2.2240 hn         1 F25       0.352050
     56 H23          6.6340     1.6110    -0.5940 hn         1 F25       0.352050
     57 HN2          5.7940     0.7890    -1.7140 hn         1 F25       0.352050
     58 H22         -0.8330    -3.0390     1.2330 hc         1 F25       0.085700
     59 H18         -3.2910    -1.9860     2.3910 h2         1 F25       0.065700
@<TRIPOS>BOND
     1     1     2 2   
     2     2     3 1   
     3     2    29 1   
     4     3     4 1   
     5     3    12 1   
     6     4     5 1   
     7     4    33 1   
     8     4    34 1   
     9     5     6 ar  
    10     5    11 ar  
    11     6     7 ar  
    12     6    35 1   
    13     7     8 ar  
    14     7    36 1   
    15     8     9 1   
    16     8    10 ar  
    17    10    11 ar  
    18    10    37 1   
    19    11    38 1   
    20    12    13 1   
    21    12    30 1   
    22    12    39 1   
    23    13    14 1   
    24    13    29 1   
    25    13    40 1   
    26    14    15 1   
    27    14    18 1   
    28    14    41 1   
    29    15    16 1   
    30    15    19 1   
    31    16    17 1   
    32    16    42 1   
    33    16    43 1   
    34    17    18 1   
    35    17    44 1   
    36    17    45 1   
    37    18    46 1   
    38    18    47 1   
    39    19    20 1   
    40    19    29 1   
    41    19    48 1   
    42    20    21 ar  
    43    20    25 ar  
    44    21    22 ar  
    45    21    49 1   
    46    22    23 ar  
    47    22    50 1   
    48    23    24 ar  
    49    23    26 1   
    50    24    25 ar  
    51    24    51 1   
    52    25    52 1   
    53    26    27 1   
    54    26    28 1   
    55    26    53 1   
    56    27    54 1   
    57    27    55 1   
    58    28    56 1   
    59    28    57 1   
    60    29    58 1   
    61    30    31 1   
    62    30    32 1   
    63    30    59 1   
@<TRIPOS>SUBSTRUCTURE
     1 F25         1 TEMP              0 ****  ****    0 ROOT
