@<TRIPOS>MOLECULE
F26
   92    92     1     0     0
SMALL
No Charge or Current Charge


@<TRIPOS>ATOM
      1 C23        186.2620   226.7750   220.9220 c3         1 F26      -0.055900
      2 C22        194.8850   227.0440   206.4190 ce         1 F26      -0.164000
      3 C18        195.8820   226.5240   205.4710 ce         1 F26      -0.193000
      4 C19        186.6940   225.6340   221.8420 ce         1 F26      -0.062200
      5 C21        199.5010   228.1060   200.7480 c3         1 F26      -0.055900
      6 C20        201.2680   226.3040   200.7220 c3         1 F26      -0.055900
      7 C17        195.8850   228.5610   203.9410 c3         1 F26      -0.056900
      8 C16        200.1700   226.9800   201.5230 c2         1 F26      -0.111400
      9 C13        196.3380   227.1730   204.3740 c2         1 F26      -0.094400
     10 C12        184.3130   223.5010   224.8270 c3         1 F26      -0.047800
     11 C11        182.5610   228.4680   227.4490 c3         1 F26      -0.044800
     12 C14        199.8500   226.5960   202.7730 c2         1 F26      -0.224200
     13 C15        186.0380   225.5450   223.1620 ce         1 F26      -0.180000
     14 C10        198.7970   227.2030   203.6830 c3         1 F26      -0.035200
     15 C1         183.7620   227.2830   225.4970 ca         1 F26      -0.059300
     16 C2         184.1960   226.0840   224.8650 ca         1 F26      -0.052800
     17 C3         183.0740   227.2170   226.7370 ca         1 F26      -0.078300
     18 C4         183.9390   224.8300   225.4810 ca         1 F26      -0.061300
     19 C5         182.8470   225.9680   227.3390 ca         1 F26      -0.103000
     20 C6         183.2750   224.7890   226.7190 ca         1 F26      -0.116000
     21 C8         197.4030   226.5770   203.4630 c3         1 F26      -0.041200
     22 C9         184.8860   226.1630   223.5570 cf         1 F26      -0.151200
     23 C24        187.6870   224.7540   221.5160 cf         1 F26      -0.180000
     24 C25        194.4320   226.3500   207.5020 cf         1 F26      -0.182000
     25 C26        193.4530   226.7970   208.4990 cf         1 F26      -0.060200
     26 C27        188.4430   224.6900   220.2670 cf         1 F26      -0.169000
     27 C28        189.4670   223.8160   220.0460 ce         1 F26      -0.174000
     28 C29        192.5930   228.0100   208.1510 c3         1 F26      -0.055900
     29 C30        193.2970   226.0940   209.6600 ce         1 F26      -0.181000
     30 C31        190.2830   223.6710   218.8190 ce         1 F26      -0.060200
     31 C32        192.3720   226.3920   210.7660 ce         1 F26      -0.169000
     32 C33        190.1360   224.4640   217.7140 cf         1 F26      -0.179000
     33 C34        191.3510   225.8320   213.0200 cf         1 F26      -0.062200
     34 C35        192.2320   225.6040   211.8700 cf         1 F26      -0.176000
     35 C36        191.3240   222.5580   218.8620 c3         1 F26      -0.055900
     36 C37        191.5120   225.0940   214.1590 ce         1 F26      -0.177000
     37 C38        190.9070   224.3720   216.4760 cf         1 F26      -0.170000
     38 C39        190.7270   225.1850   215.4010 ce         1 F26      -0.172000
     39 C40        190.2310   226.8580   212.8590 c3         1 F26      -0.055900
     40 H1         185.4280   226.4700   220.2790 hc         1 F26       0.042700
     41 H2         185.9470   227.6600   221.4860 hc         1 F26       0.042700
     42 H3         187.0760   227.1180   220.2750 hc         1 F26       0.042700
     43 H4         194.5120   228.0530   206.2410 ha         1 F26       0.172000
     44 H5         196.2780   225.5330   205.7010 ha         1 F26       0.169000
     45 H6         198.6680   228.5640   201.2930 hc         1 F26       0.038367
     46 H7         200.2180   228.9030   200.5170 hc         1 F26       0.038367
     47 H8         199.0950   227.7390   199.7980 hc         1 F26       0.038367
     48 H9         201.7460   225.4950   201.2870 hc         1 F26       0.038367
     49 H10        200.8710   225.8680   199.7970 hc         1 F26       0.038367
     50 H11        202.0520   227.0190   200.4450 hc         1 F26       0.038367
     51 H12        194.8010   228.6830   204.0480 hc         1 F26       0.041033
     52 H13        196.3730   229.3360   204.5440 hc         1 F26       0.041033
     53 H14        196.1220   228.7660   202.8890 hc         1 F26       0.041033
     54 H16        185.3570   223.2390   225.0340 hc         1 F26       0.042700
     55 H17        183.6920   222.6800   225.2050 hc         1 F26       0.042700
     56 H18        184.1720   223.5270   223.7400 hc         1 F26       0.042700
     57 H19        181.9720   229.0980   226.7720 hc         1 F26       0.040367
     58 H20        181.9150   228.2180   228.2980 hc         1 F26       0.040367
     59 H21        183.3920   229.0680   227.8370 hc         1 F26       0.040367
     60 H22        200.3910   225.7700   203.2370 ha         1 F26       0.165000
     61 H23        186.5410   224.9120   223.8930 ha         1 F26       0.175000
     62 H25        199.0900   227.0620   204.7310 hc         1 F26       0.046200
     63 H26        198.7380   228.2880   203.5360 hc         1 F26       0.046200
     64 H27        182.3250   225.9050   228.2920 ha         1 F26       0.110000
     65 H28        183.0740   223.8340   227.1990 ha         1 F26       0.110000
     66 H29        183.2680   228.8960   224.1150 hc         1 F26       0.042367
     67 H30        184.1040   229.4610   225.5670 hc         1 F26       0.042367
     68 H31        185.0110   228.6510   224.3170 hc         1 F26       0.042367
     69 H32        197.1150   226.6930   202.4100 hc         1 F26       0.047200
     70 H33        197.4800   225.4960   203.6310 hc         1 F26       0.047200
     71 H34        184.3690   226.7960   222.8360 ha         1 F26       0.174000
     72 H36        187.9440   223.9960   222.2590 ha         1 F26       0.169000
     73 H37        194.8530   225.3560   207.6630 ha         1 F26       0.169000
     74 H40        188.1520   225.3750   219.4740 ha         1 F26       0.173000
     75 H41        189.7190   223.1410   220.8660 ha         1 F26       0.169000
     76 H42        191.5950   227.9520   208.5970 hc         1 F26       0.042033
     77 H43        193.0630   228.9380   208.4960 hc         1 F26       0.042033
     78 H44        192.4250   228.0990   207.0720 hc         1 F26       0.042033
     79 H45        193.9320   225.2190   209.8080 ha         1 F26       0.169000
     80 H48        191.7900   227.3100   210.6960 ha         1 F26       0.173000
     81 H49        189.3820   225.2490   217.7300 ha         1 F26       0.169000
     82 H51        192.8560   224.7090   211.9220 ha         1 F26       0.170000
     83 H52        192.3360   222.9610   218.7340 hc         1 F26       0.042367
     84 H53        191.3170   222.0040   219.8080 hc         1 F26       0.042367
     85 H54        191.1530   221.8280   218.0630 hc         1 F26       0.042367
     86 H55        192.3190   224.3590   214.1720 ha         1 F26       0.169000
     87 H56        191.6780   223.6020   216.4110 ha         1 F26       0.172000
     88 H57        189.9620   225.9590   215.4660 ha         1 F26       0.171000
     89 H58        189.3450   226.6020   213.4480 hc         1 F26       0.042367
     90 H59        190.5630   227.8560   213.1670 hc         1 F26       0.042367
     91 H60        189.8810   226.9250   211.8220 hc         1 F26       0.042367
     92 C7         184.0480   228.6430   224.8420 c3         1 F26      -0.050800
@<TRIPOS>BOND
     1     1     4 1   
     2     1    40 1   
     3     1    41 1   
     4     1    42 1   
     5     2     3 1   
     6     2    24 2   
     7     2    43 1   
     8     3     9 2   
     9     3    44 1   
    10     4    13 1   
    11     4    23 2   
    12     5     8 1   
    13     5    45 1   
    14     5    46 1   
    15     5    47 1   
    16     6     8 1   
    17     6    48 1   
    18     6    49 1   
    19     6    50 1   
    20     7     9 1   
    21     7    51 1   
    22     7    52 1   
    23     7    53 1   
    24     8    12 2   
    25     9    21 1   
    26    10    18 1   
    27    10    54 1   
    28    10    55 1   
    29    10    56 1   
    30    11    17 1   
    31    11    57 1   
    32    11    58 1   
    33    11    59 1   
    34    12    14 1   
    35    12    60 1   
    36    13    22 2   
    37    13    61 1   
    38    14    21 1   
    39    14    62 1   
    40    14    63 1   
    41    15    16 ar  
    42    15    17 ar  
    43    15    92 1   
    44    16    18 ar  
    45    16    22 1   
    46    17    19 ar  
    47    18    20 ar  
    48    19    20 ar  
    49    19    64 1   
    50    20    65 1   
    51    21    69 1   
    52    21    70 1   
    53    22    71 1   
    54    23    26 1   
    55    23    72 1   
    56    24    25 1   
    57    24    73 1   
    58    25    28 1   
    59    25    29 2   
    60    26    27 2   
    61    26    74 1   
    62    27    30 1   
    63    27    75 1   
    64    28    76 1   
    65    28    77 1   
    66    28    78 1   
    67    29    31 1   
    68    29    79 1   
    69    30    32 2   
    70    30    35 1   
    71    31    34 2   
    72    31    80 1   
    73    32    37 1   
    74    32    81 1   
    75    33    34 1   
    76    33    36 2   
    77    33    39 1   
    78    34    82 1   
    79    35    83 1   
    80    35    84 1   
    81    35    85 1   
    82    36    38 1   
    83    36    86 1   
    84    37    38 2   
    85    37    87 1   
    86    38    88 1   
    87    39    89 1   
    88    39    90 1   
    89    39    91 1   
    90    66    92 1   
    91    67    92 1   
    92    68    92 1   
@<TRIPOS>SUBSTRUCTURE
     1 F26         1 TEMP              0 ****  ****    0 ROOT
