@<TRIPOS>MOLECULE
F26
   92    92     1     0     0
SMALL
bcc


@<TRIPOS>ATOM
      1 C23        186.3550   226.7780   220.7630 c3         1 F26      -0.055900
      2 C22        194.6420   227.0060   206.5270 ce         1 F26      -0.114000
      3 C18        195.7170   226.5470   205.6780 ce         1 F26      -0.143000
      4 C19        186.7450   225.6390   221.6540 ce         1 F26      -0.062200
      5 C21        199.7060   228.1740   200.8840 c3         1 F26      -0.055900
      6 C20        201.3530   226.3100   201.2910 c3         1 F26      -0.055900
      7 C17        195.3450   228.1410   203.7670 c3         1 F26      -0.056900
      8 C16        200.1630   227.0740   201.7960 c2         1 F26      -0.111400
      9 C13        196.0550   227.0220   204.4640 c2         1 F26      -0.094400
     10 C12        184.0610   223.5420   224.2950 c3         1 F26      -0.047800
     11 C11        182.9510   228.3810   227.3530 c3         1 F26      -0.044800
     12 C14        199.5970   226.7680   202.9660 c2         1 F26      -0.174200
     13 C15        186.0310   225.4640   222.9060 ce         1 F26      -0.130000
     14 C10        198.4130   227.4130   203.6160 c3         1 F26      -0.035200
     15 C1         184.0090   227.2410   225.3470 ca         1 F26      -0.059300
     16 C2         184.2900   226.0750   224.6040 ca         1 F26      -0.052800
     17 C3         183.2800   227.1610   226.5380 ca         1 F26      -0.078300
     18 C4         183.8380   224.8210   225.0540 ca         1 F26      -0.061300
     19 C5         182.8490   225.9120   226.9730 ca         1 F26      -0.121000
     20 C6         183.1220   224.7680   226.2440 ca         1 F26      -0.134000
     21 C8         197.2290   226.4370   203.7300 c3         1 F26      -0.041200
     22 C9         185.0190   226.2350   223.3380 cf         1 F26      -0.101200
     23 C24        187.7260   224.7490   221.3580 cf         1 F26      -0.130000
     24 C25        194.3910   226.4680   207.7380 cf         1 F26      -0.132000
     25 C26        193.3440   226.8730   208.6510 cf         1 F26      -0.060200
     26 C27        188.5410   224.7200   220.1770 cf         1 F26      -0.119000
     27 C28        189.4850   223.7760   219.9650 ce         1 F26      -0.124000
     28 C29        192.4280   227.9860   208.2360 c3         1 F26      -0.055900
     29 C30        193.2520   226.2250   209.8420 ce         1 F26      -0.131000
     30 C31        190.3570   223.6370   218.8090 ce         1 F26      -0.060200
     31 C32        192.3130   226.4690   210.8980 ce         1 F26      -0.119000
     32 C33        190.2150   224.4090   217.7020 cf         1 F26      -0.129000
     33 C34        191.4060   225.9540   213.1570 cf         1 F26      -0.062200
     34 C35        192.3140   225.7600   212.0510 cf         1 F26      -0.126000
     35 C36        191.4000   222.5650   218.9430 c3         1 F26      -0.055900
     36 C37        191.5540   225.1620   214.2540 ce         1 F26      -0.127000
     37 C38        191.0070   224.3710   216.5090 cf         1 F26      -0.120000
     38 C39        190.7730   225.1880   215.4520 ce         1 F26      -0.122000
     39 C40        190.3630   227.0250   213.0420 c3         1 F26      -0.055900
     40 H1         185.3200   226.6780   220.4280 hc         1 F26       0.042700
     41 H2         186.4240   227.7290   221.2960 hc         1 F26       0.042700
     42 H3         186.9810   226.8550   219.8790 hc         1 F26       0.042700
     43 H4         194.0200   227.8190   206.1680 ha         1 F26       0.122000
     44 H5         196.3130   225.7310   206.0800 ha         1 F26       0.119000
     45 H6         198.8200   228.6970   201.2370 hc         1 F26       0.038367
     46 H7         200.4980   228.9160   200.7510 hc         1 F26       0.038367
     47 H8         199.4860   227.7780   199.8900 hc         1 F26       0.038367
     48 H9         201.6490   225.5100   201.9700 hc         1 F26       0.038367
     49 H10        201.1470   225.8640   200.3150 hc         1 F26       0.038367
     50 H11        202.2130   226.9700   201.1540 hc         1 F26       0.038367
     51 H12        194.4340   228.4570   204.2690 hc         1 F26       0.041033
     52 H13        195.9880   229.0190   203.6740 hc         1 F26       0.041033
     53 H14        195.0780   227.8450   202.7490 hc         1 F26       0.041033
     54 H16        185.0440   223.1120   224.4940 hc         1 F26       0.042700
     55 H17        183.3230   222.7950   224.5870 hc         1 F26       0.042700
     56 H18        183.9900   223.6840   223.2170 hc         1 F26       0.042700
     57 H19        182.3870   229.1170   226.7770 hc         1 F26       0.040367
     58 H20        182.3490   228.1140   228.2200 hc         1 F26       0.040367
     59 H21        183.8490   228.8840   227.7190 hc         1 F26       0.040367
     60 H22        200.0270   225.9420   203.5290 ha         1 F26       0.115000
     61 H23        186.3760   224.6460   223.5290 ha         1 F26       0.125000
     62 H25        198.6890   227.7370   204.6240 hc         1 F26       0.046200
     63 H26        198.1040   228.3100   203.0780 hc         1 F26       0.046200
     64 H27        182.2810   225.8350   227.8930 ha         1 F26       0.128000
     65 H28        182.7600   223.8110   226.6020 ha         1 F26       0.128000
     66 H29        183.9130   228.9320   224.0050 hc         1 F26       0.042367
     67 H30        184.4730   229.3390   225.6150 hc         1 F26       0.042367
     68 H31        185.5400   228.5070   224.5000 hc         1 F26       0.042367
     69 H32        196.9220   226.1460   202.7190 hc         1 F26       0.047200
     70 H33        197.5630   225.5260   204.2320 hc         1 F26       0.047200
     71 H34        184.7120   227.0770   222.7260 ha         1 F26       0.124000
     72 H36        187.9190   223.9630   222.0850 ha         1 F26       0.119000
     73 H37        195.0280   225.6550   208.0800 ha         1 F26       0.119000
     74 H40        188.3840   225.4910   219.4320 ha         1 F26       0.123000
     75 H41        189.6270   223.0300   220.7430 ha         1 F26       0.119000
     76 H42        191.6390   228.1760   208.9590 hc         1 F26       0.042033
     77 H43        192.9820   228.9170   208.0990 hc         1 F26       0.042033
     78 H44        191.9500   227.7600   207.2820 hc         1 F26       0.042033
     79 H45        193.9730   225.4320   210.0270 ha         1 F26       0.119000
     80 H48        191.5810   227.2570   210.7680 ha         1 F26       0.123000
     81 H49        189.4140   225.1420   217.6900 ha         1 F26       0.119000
     82 H51        193.0550   224.9740   212.1700 ha         1 F26       0.120000
     83 H52        192.0790   222.5100   218.0970 hc         1 F26       0.042367
     84 H53        192.0010   222.7220   219.8410 hc         1 F26       0.042367
     85 H54        190.9280   221.5860   219.0520 hc         1 F26       0.042367
     86 H55        192.3550   224.4270   214.2290 ha         1 F26       0.119000
     87 H56        191.8280   223.6650   216.4410 ha         1 F26       0.122000
     88 H57        189.9520   225.8930   215.5270 ha         1 F26       0.121000
     89 H58        189.6970   227.0600   213.9000 hc         1 F26       0.042367
     90 H59        190.8260   228.0090   212.9460 hc         1 F26       0.042367
     91 H60        189.7450   226.8800   212.1540 hc         1 F26       0.042367
     92 C7         184.5080   228.5700   224.8470 c3         1 F26      -0.050800
@<TRIPOS>BOND
     1     1     4 1   
     2     1    40 1   
     3     1    41 1   
     4     1    42 1   
     5     2     3 1   
     6     2    24 2   
     7     2    43 1   
     8     3     9 2   
     9     3    44 1   
    10     4    13 1   
    11     4    23 2   
    12     5     8 1   
    13     5    45 1   
    14     5    46 1   
    15     5    47 1   
    16     6     8 1   
    17     6    48 1   
    18     6    49 1   
    19     6    50 1   
    20     7     9 1   
    21     7    51 1   
    22     7    52 1   
    23     7    53 1   
    24     8    12 2   
    25     9    21 1   
    26    10    18 1   
    27    10    54 1   
    28    10    55 1   
    29    10    56 1   
    30    11    17 1   
    31    11    57 1   
    32    11    58 1   
    33    11    59 1   
    34    12    14 1   
    35    12    60 1   
    36    13    22 2   
    37    13    61 1   
    38    14    21 1   
    39    14    62 1   
    40    14    63 1   
    41    15    16 ar  
    42    15    17 ar  
    43    15    92 1   
    44    16    18 ar  
    45    16    22 1   
    46    17    19 ar  
    47    18    20 ar  
    48    19    20 ar  
    49    19    64 1   
    50    20    65 1   
    51    21    69 1   
    52    21    70 1   
    53    22    71 1   
    54    23    26 1   
    55    23    72 1   
    56    24    25 1   
    57    24    73 1   
    58    25    28 1   
    59    25    29 2   
    60    26    27 2   
    61    26    74 1   
    62    27    30 1   
    63    27    75 1   
    64    28    76 1   
    65    28    77 1   
    66    28    78 1   
    67    29    31 1   
    68    29    79 1   
    69    30    32 2   
    70    30    35 1   
    71    31    34 2   
    72    31    80 1   
    73    32    37 1   
    74    32    81 1   
    75    33    34 1   
    76    33    36 2   
    77    33    39 1   
    78    34    82 1   
    79    35    83 1   
    80    35    84 1   
    81    35    85 1   
    82    36    38 1   
    83    36    86 1   
    84    37    38 2   
    85    37    87 1   
    86    38    88 1   
    87    39    89 1   
    88    39    90 1   
    89    39    91 1   
    90    66    92 1   
    91    67    92 1   
    92    68    92 1   
@<TRIPOS>SUBSTRUCTURE
     1 F26         1 TEMP              0 ****  ****    0 ROOT
