@<TRIPOS>MOLECULE
F27
   47    50     1     0     0
SMALL
No Charge or Current Charge


@<TRIPOS>ATOM
      1 C12         -0.9440     1.1870    -0.0830 c3         1 F27      -0.166400
      2 C13          0.4580     1.8300    -0.1270 c          1 F27       0.519600
      3 O14          0.5820     3.0490    -0.2340 o          1 F27      -0.510100
      4 C15          1.6360     0.8990    -0.0350 cc         1 F27       0.309500
      5 N16          1.6030    -0.4360     0.0820 nd         1 F27      -0.655000
      6 C17          2.9330    -0.8200     0.1270 cd         1 F27       0.238900
      7 C18          3.6930     0.3110     0.0340 cc         1 F27       0.115000
      8 O19          2.9080     1.4130    -0.0700 os         1 F27      -0.221000
      9 C20          5.1600     0.3520     0.0430 ca         1 F27       0.260000
     10 N21          5.8360    -0.8190     0.1520 nb         1 F27      -0.623000
     11 C22          7.2080    -0.8160     0.1630 ca         1 F27       0.291500
     12 C23          7.9260     0.3990     0.0620 ca         1 F27      -0.116000
     13 C24          7.2350     1.6150    -0.0510 ca         1 F27      -0.118000
     14 C25          5.8340     1.5860    -0.0600 ca         1 F27      -0.156000
     15 C26          7.9820    -2.1570     0.2880 c          1 F27       0.613500
     16 O27          9.2090    -2.1350     0.2960 o          1 F27      -0.695000
     17 O28          7.3560    -3.2110     0.3760 o          1 F27      -0.695000
     18 C29         -2.1430     2.1600    -0.1790 c3         1 F27      -0.025100
     19 C30         -3.4740     1.4230    -0.1260 ca         1 F27      -0.071300
     20 C31         -4.0840     0.9700    -1.3090 ca         1 F27      -0.107000
     21 C32         -5.3100     0.2850    -1.2590 ca         1 F27      -0.098000
     22 C33         -5.9600     0.0320    -0.0250 cp         1 F27      -0.042000
     23 C34         -5.3290     0.4940     1.1580 ca         1 F27      -0.098000
     24 C35         -4.1030     1.1800     1.1080 ca         1 F27      -0.107000
     25 C36         -7.2670    -0.6990     0.0280 cp         1 F27      -0.026000
     26 C37         -8.2370    -0.5430    -0.9960 ca         1 F27      -0.101000
     27 C38         -9.4630    -1.2280    -0.9460 ca         1 F27      -0.112500
     28 C39         -9.7470    -2.0860     0.1280 ca         1 F27      -0.112000
     29 C40         -8.8030    -2.2570     1.1530 ca         1 F27      -0.112500
     30 C41         -7.5770    -1.5710     1.1040 ca         1 F27      -0.101000
     31 H12         -0.9800     0.4170    -0.8620 hc         1 F27       0.083700
     32 H12A        -0.9950     0.5660     0.8190 hc         1 F27       0.083700
     33 H17          3.2480    -1.8530     0.2210 h4         1 F27       0.077100
     34 H23          9.0130     0.3960     0.0720 ha         1 F27       0.143000
     35 H24          7.7740     2.5570    -0.1290 ha         1 F27       0.098000
     36 H25          5.2740     2.5140    -0.1470 ha         1 F27       0.113000
     37 H29         -2.0840     2.8900     0.6380 hc         1 F27       0.057700
     38 H29A        -2.0690     2.7360    -1.1110 hc         1 F27       0.057700
     39 H31         -3.6060     1.1440    -2.2710 ha         1 F27       0.114500
     40 H32         -5.7530    -0.0650    -2.1880 ha         1 F27       0.112000
     41 H34         -5.7990     0.3320     2.1240 ha         1 F27       0.112000
     42 H35         -3.6430     1.5230     2.0320 ha         1 F27       0.114500
     43 H37         -8.0430     0.1270    -1.8300 ha         1 F27       0.114500
     44 H38        -10.1940    -1.0910    -1.7400 ha         1 F27       0.110000
     45 H39        -10.6960    -2.6160     0.1670 ha         1 F27       0.109000
     46 H40         -9.0190    -2.9240     1.9850 ha         1 F27       0.110000
     47 H41         -6.8550    -1.7280     1.9010 ha         1 F27       0.114500
@<TRIPOS>BOND
     1     1     2 1   
     2     1    18 1   
     3     1    31 1   
     4     1    32 1   
     5     2     3 2   
     6     2     4 1   
     7     4     5 2   
     8     4     8 1   
     9     5     6 1   
    10     6     7 2   
    11     6    33 1   
    12     7     8 1   
    13     7     9 1   
    14     9    10 ar  
    15     9    14 ar  
    16    10    11 ar  
    17    11    12 ar  
    18    11    15 1   
    19    12    13 ar  
    20    12    34 1   
    21    13    14 ar  
    22    13    35 1   
    23    14    36 1   
    24    15    16 1   
    25    15    17 1   
    26    18    19 1   
    27    18    37 1   
    28    18    38 1   
    29    19    20 ar  
    30    19    24 ar  
    31    20    21 ar  
    32    20    39 1   
    33    21    22 ar  
    34    21    40 1   
    35    22    23 ar  
    36    22    25 1   
    37    23    24 ar  
    38    23    41 1   
    39    24    42 1   
    40    25    26 ar  
    41    25    30 ar  
    42    26    27 ar  
    43    26    43 1   
    44    27    28 ar  
    45    27    44 1   
    46    28    29 ar  
    47    28    45 1   
    48    29    30 ar  
    49    29    46 1   
    50    30    47 1   
@<TRIPOS>SUBSTRUCTURE
     1 F27         1 TEMP              0 ****  ****    0 ROOT
