@<TRIPOS>MOLECULE
F27
   47    50     1     0     0
SMALL
bcc


@<TRIPOS>ATOM
      1 C12         -0.9310     1.0560    -0.2270 c3         1 F27      -0.166400
      2 C13          0.4400     1.6670    -0.2460 c          1 F27       0.519600
      3 O14          0.6580     2.8520    -0.3470 o          1 F27      -0.510100
      4 C15          1.5670     0.7210    -0.1260 cc         1 F27       0.353900
      5 N16          1.5260    -0.5660    -0.0260 nd         1 F27      -0.655000
      6 C17          2.8300    -0.9580     0.0610 cd         1 F27       0.238900
      7 C18          3.6220     0.1500     0.0100 cc         1 F27       0.159400
      8 O19          2.8110     1.2160    -0.1110 os         1 F27      -0.309800
      9 C20          5.0620     0.3410     0.0670 ca         1 F27       0.325300
     10 N21          5.7660    -0.7850     0.1550 nb         1 F27      -0.623000
     11 C22          7.0880    -0.7160     0.2160 ca         1 F27       0.356800
     12 C23          7.7600     0.5060     0.1930 ca         1 F27      -0.199300
     13 C24          7.0270     1.6760     0.0990 ca         1 F27      -0.136000
     14 C25          5.6450     1.6050     0.0330 ca         1 F27      -0.239300
     15 C26          7.8730    -2.0300     0.3100 c          1 F27       0.824100
     16 O27          9.1090    -1.9080     0.4060 o          1 F27      -0.800300
     17 O28          7.2120    -3.0780     0.2790 o          1 F27      -0.800300
     18 C29         -2.0570     2.0850    -0.2630 c3         1 F27      -0.025100
     19 C30         -3.3960     1.4070    -0.1850 ca         1 F27      -0.071300
     20 C31         -4.0650     1.0010    -1.3370 ca         1 F27      -0.125000
     21 C32         -5.2810     0.3390    -1.2630 ca         1 F27      -0.116000
     22 C33         -5.8710     0.0560    -0.0310 cp         1 F27      -0.042000
     23 C34         -5.2010     0.4660     1.1230 ca         1 F27      -0.116000
     24 C35         -3.9860     1.1280     1.0450 ca         1 F27      -0.125000
     25 C36         -7.1650    -0.6520     0.0540 cp         1 F27      -0.026000
     26 C37         -8.1690    -0.4290    -0.8910 ca         1 F27      -0.119000
     27 C38         -9.3830    -1.0940    -0.8080 ca         1 F27      -0.130500
     28 C39         -9.6200    -1.9950     0.2220 ca         1 F27      -0.130000
     29 C40         -8.6300    -2.2250     1.1680 ca         1 F27      -0.130500
     30 C41         -7.4150    -1.5620     1.0830 ca         1 F27      -0.119000
     31 H12         -1.0100     0.3680    -1.0740 hc         1 F27       0.083700
     32 H12A        -1.0140     0.4230     0.6620 hc         1 F27       0.083700
     33 H17          3.1250    -1.9890     0.1550 h4         1 F27       0.077100
     34 H23          8.8380     0.5310     0.2460 ha         1 F27       0.161000
     35 H24          7.5230     2.6380     0.0760 ha         1 F27       0.116000
     36 H25          5.0460     2.5020    -0.0430 ha         1 F27       0.131000
     37 H29         -1.9460     2.7810     0.5700 hc         1 F27       0.057700
     38 H29A        -1.9910     2.6750    -1.1790 hc         1 F27       0.057700
     39 H31         -3.6300     1.2010    -2.3090 ha         1 F27       0.132500
     40 H32         -5.7650     0.0250    -2.1800 ha         1 F27       0.130000
     41 H34         -5.6420     0.2880     2.0960 ha         1 F27       0.130000
     42 H35         -3.4960     1.4420     1.9590 ha         1 F27       0.132500
     43 H37         -8.0080     0.2860    -1.6890 ha         1 F27       0.132500
     44 H38        -10.1510    -0.9000    -1.5460 ha         1 F27       0.128000
     45 H39        -10.5680    -2.5130     0.2870 ha         1 F27       0.127000
     46 H40         -8.7990    -2.9300     1.9720 ha         1 F27       0.128000
     47 H41         -6.6450    -1.7680     1.8170 ha         1 F27       0.132500
@<TRIPOS>BOND
     1     1     2 1   
     2     1    18 1   
     3     1    31 1   
     4     1    32 1   
     5     2     3 2   
     6     2     4 1   
     7     4     5 2   
     8     4     8 1   
     9     5     6 1   
    10     6     7 2   
    11     6    33 1   
    12     7     8 1   
    13     7     9 1   
    14     9    10 ar  
    15     9    14 ar  
    16    10    11 ar  
    17    11    12 ar  
    18    11    15 1   
    19    12    13 ar  
    20    12    34 1   
    21    13    14 ar  
    22    13    35 1   
    23    14    36 1   
    24    15    16 1   
    25    15    17 1   
    26    18    19 1   
    27    18    37 1   
    28    18    38 1   
    29    19    20 ar  
    30    19    24 ar  
    31    20    21 ar  
    32    20    39 1   
    33    21    22 ar  
    34    21    40 1   
    35    22    23 ar  
    36    22    25 1   
    37    23    24 ar  
    38    23    41 1   
    39    24    42 1   
    40    25    26 ar  
    41    25    30 ar  
    42    26    27 ar  
    43    26    43 1   
    44    27    28 ar  
    45    27    44 1   
    46    28    29 ar  
    47    28    45 1   
    48    29    30 ar  
    49    29    46 1   
    50    30    47 1   
@<TRIPOS>SUBSTRUCTURE
     1 F27         1 TEMP              0 ****  ****    0 ROOT
