@<TRIPOS>MOLECULE
F28
   47    50     1     0     0
SMALL
No Charge or Current Charge


@<TRIPOS>ATOM
      1 C10        -37.4410   -18.3140    -4.7790 c6         1 F28      -0.112900
      2 C11        -35.9240   -18.3530    -5.0640 c6         1 F28       0.099500
      3 C13        -33.8810   -19.7200    -4.6460 c          1 F28       0.607900
      4 O14        -33.2540   -20.7730    -4.6160 o          1 F28      -0.601100
      5 C20        -36.0460   -20.8910    -5.1650 c6         1 F28       0.099500
      6 C21        -37.5650   -20.8060    -4.8940 c6         1 F28      -0.112900
      7 C22        -40.4990   -18.7260    -4.4010 c          1 F28       0.574000
      8 C24        -41.7160   -19.5200    -4.9550 cy         1 F28      -0.122400
      9 C25        -42.4100   -20.3030    -3.8370 ca         1 F28      -0.069300
     10 C26        -43.7840   -20.1030    -3.6000 ca         1 F28      -0.095000
     11 C27        -44.4400   -20.8110    -2.5780 ca         1 F28      -0.109500
     12 C28        -43.7260   -21.7240    -1.7840 ca         1 F28      -0.102000
     13 C1         -40.8420   -21.2670    -8.1720 ca         1 F28      -0.093500
     14 C2         -40.7820   -20.1190    -7.3570 ca         1 F28      -0.101300
     15 C3         -40.8190   -18.8440    -7.9580 ca         1 F28      -0.093500
     16 C4         -40.9200   -18.7200    -9.3550 ca         1 F28      -0.112500
     17 C5         -40.9830   -19.8690   -10.1600 ca         1 F28      -0.101000
     18 C6         -40.9430   -21.1420    -9.5680 ca         1 F28      -0.112500
     19 C7         -40.6630   -20.2660    -5.8420 cy         1 F28       0.152000
     20 N8         -39.6080   -19.4670    -5.1880 nj         1 F28      -0.429800
     21 C9         -38.1650   -19.4990    -5.4410 c6         1 F28       0.131700
     22 N12        -35.2790   -19.6660    -4.7920 n          1 F28      -0.423800
     23 O23        -40.3490   -17.8130    -3.6010 o          1 F28      -0.511000
     24 C29        -42.3550   -21.9270    -2.0130 ca         1 F28      -0.109500
     25 C30        -41.6990   -21.2200    -3.0350 ca         1 F28      -0.095000
     26 H38        -37.8570   -17.3650    -5.1410 hc         1 F28       0.062450
     27 H39        -37.6020   -18.3370    -3.6920 hc         1 F28       0.062450
     28 H40        -35.7570   -18.1010    -6.1210 h1         1 F28       0.053950
     29 H41        -35.4300   -17.5720    -4.4670 h1         1 F28       0.053950
     30 H1         -33.4140   -18.7210    -4.5610 h5         1 F28       0.007200
     31 H44        -35.8890   -21.0790    -6.2370 h1         1 F28       0.053950
     32 H45        -35.6430   -21.7590    -4.6240 h1         1 F28       0.053950
     33 H47        -37.7460   -20.8710    -3.8120 hc         1 F28       0.062450
     34 H46        -38.0630   -21.6730    -5.3460 hc         1 F28       0.062450
     35 H48        -42.3700   -18.8400    -5.5080 hc         1 F28       0.093700
     36 H49        -44.3470   -19.3980    -4.2080 ha         1 F28       0.113000
     37 H50        -45.5020   -20.6510    -2.4010 ha         1 F28       0.115000
     38 H51        -44.2340   -22.2710    -0.9930 ha         1 F28       0.114000
     39 H31        -40.8100   -22.2590    -7.7240 ha         1 F28       0.117500
     40 H32        -40.7640   -17.9460    -7.3460 ha         1 F28       0.117500
     41 H33        -40.9470   -17.7330    -9.8120 ha         1 F28       0.115500
     42 H34        -41.0610   -19.7730   -11.2410 ha         1 F28       0.115000
     43 H35        -40.9900   -22.0330   -10.1910 ha         1 F28       0.115500
     44 H36        -40.5680   -21.3280    -5.5860 h1         1 F28       0.067700
     45 H37        -38.0000   -19.4560    -6.5280 h1         1 F28       0.056700
     46 H52        -41.8010   -22.6330    -1.3980 ha         1 F28       0.115000
     47 H53        -40.6360   -21.3870    -3.1940 ha         1 F28       0.113000
@<TRIPOS>BOND
     1     1     2 1   
     2     1    21 1   
     3     1    26 1   
     4     1    27 1   
     5     2    22 1   
     6     2    28 1   
     7     2    29 1   
     8     3     4 2   
     9     3    22 1   
    10     3    30 1   
    11     5     6 1   
    12     5    22 1   
    13     5    31 1   
    14     5    32 1   
    15     6    21 1   
    16     6    33 1   
    17     6    34 1   
    18     7     8 1   
    19     7    20 1   
    20     7    23 2   
    21     8     9 1   
    22     8    19 1   
    23     8    35 1   
    24     9    10 ar  
    25     9    25 ar  
    26    10    11 ar  
    27    10    36 1   
    28    11    12 ar  
    29    11    37 1   
    30    12    24 ar  
    31    12    38 1   
    32    13    14 ar  
    33    13    18 ar  
    34    13    39 1   
    35    14    15 ar  
    36    14    19 1   
    37    15    16 ar  
    38    15    40 1   
    39    16    17 ar  
    40    16    41 1   
    41    17    18 ar  
    42    17    42 1   
    43    18    43 1   
    44    19    20 1   
    45    19    44 1   
    46    20    21 1   
    47    21    45 1   
    48    24    25 ar  
    49    24    46 1   
    50    25    47 1   
@<TRIPOS>SUBSTRUCTURE
     1 F28         1 TEMP              0 ****  ****    0 ROOT
