@<TRIPOS>MOLECULE
F28
   47    50     1     0     0
SMALL
abcg2


@<TRIPOS>ATOM
      1 C10        -37.3010   -18.3100    -5.3300 c6         1 F28      -0.112900
      2 C11        -35.8270   -18.4910    -5.6680 c6         1 F28       0.099500
      3 C13        -34.2140   -19.3440    -4.0510 c          1 F28       0.607900
      4 O14        -33.6820   -20.1790    -3.3390 o          1 F28      -0.601100
      5 C20        -35.9000   -20.8460    -4.9990 c6         1 F28       0.099500
      6 C21        -37.3780   -20.7260    -4.6520 c6         1 F28      -0.112900
      7 C22        -40.1750   -18.9460    -4.2480 c          1 F28       0.574000
      8 C24        -41.4800   -19.5450    -4.7850 cy         1 F28      -0.122400
      9 C25        -42.2900   -20.3760    -3.8420 ca         1 F28      -0.069300
     10 C26        -43.6650   -20.1890    -3.7390 ca         1 F28      -0.095000
     11 C27        -44.4240   -20.9660    -2.8730 ca         1 F28      -0.109500
     12 C28        -43.8140   -21.9400    -2.0950 ca         1 F28      -0.102000
     13 C1         -41.3770   -21.0760    -8.0240 ca         1 F28      -0.093500
     14 C2         -40.8100   -20.0550    -7.2660 ca         1 F28      -0.101300
     15 C3         -40.5160   -18.8410    -7.8810 ca         1 F28      -0.093500
     16 C4         -40.7860   -18.6530    -9.2290 ca         1 F28      -0.112500
     17 C5         -41.3580   -19.6740    -9.9780 ca         1 F28      -0.101000
     18 C6         -41.6550   -20.8870    -9.3710 ca         1 F28      -0.112500
     19 C7         -40.5530   -20.2750    -5.8080 cy         1 F28       0.152000
     20 N8         -39.4470   -19.5200    -5.2300 nj         1 F28      -0.429800
     21 C9         -38.0350   -19.6370    -5.5010 c6         1 F28       0.131700
     22 N12        -35.2460   -19.5580    -4.8800 n          1 F28      -0.423800
     23 O23        -39.8850   -18.2560    -3.3000 o          1 F28      -0.511000
     24 C29        -42.4400   -22.1310    -2.1880 ca         1 F28      -0.109500
     25 C30        -41.6850   -21.3550    -3.0530 ca         1 F28      -0.095000
     26 H38        -37.7340   -17.5550    -5.9900 hc         1 F28       0.062450
     27 H39        -37.3970   -17.9500    -4.3040 hc         1 F28       0.062450
     28 H40        -35.7160   -18.7260    -6.7310 h1         1 F28       0.053950
     29 H41        -35.2780   -17.5680    -5.4810 h1         1 F28       0.053950
     30 H1         -33.8770   -18.2950    -4.0770 h5         1 F28       0.007200
     31 H44        -35.7880   -21.2070    -6.0280 h1         1 F28       0.053950
     32 H45        -35.4030   -21.5610    -4.3470 h1         1 F28       0.053950
     33 H47        -37.4900   -20.4820    -3.5920 hc         1 F28       0.062450
     34 H46        -37.8680   -21.6870    -4.8250 hc         1 F28       0.062450
     35 H48        -42.1020   -18.7880    -5.2690 hc         1 F28       0.093700
     36 H49        -44.1480   -19.4310    -4.3430 ha         1 F28       0.113000
     37 H50        -45.4930   -20.8090    -2.8070 ha         1 F28       0.115000
     38 H51        -44.4030   -22.5460    -1.4200 ha         1 F28       0.114000
     39 H31        -41.5990   -22.0290    -7.5570 ha         1 F28       0.117500
     40 H32        -40.0660   -18.0380    -7.3080 ha         1 F28       0.117500
     41 H33        -40.5470   -17.7060    -9.6970 ha         1 F28       0.115500
     42 H34        -41.5670   -19.5260   -11.0290 ha         1 F28       0.115000
     43 H35        -42.0960   -21.6890    -9.9470 ha         1 F28       0.115500
     44 H36        -40.4830   -21.3460    -5.5970 h1         1 F28       0.067700
     45 H37        -37.9560   -19.9280    -6.5550 h1         1 F28       0.056700
     46 H52        -41.9560   -22.8870    -1.5830 ha         1 F28       0.115000
     47 H53        -40.6150   -21.5190    -3.1130 ha         1 F28       0.113000
@<TRIPOS>BOND
     1     1     2 1   
     2     1    21 1   
     3     1    26 1   
     4     1    27 1   
     5     2    22 1   
     6     2    28 1   
     7     2    29 1   
     8     3     4 2   
     9     3    22 1   
    10     3    30 1   
    11     5     6 1   
    12     5    22 1   
    13     5    31 1   
    14     5    32 1   
    15     6    21 1   
    16     6    33 1   
    17     6    34 1   
    18     7     8 1   
    19     7    20 1   
    20     7    23 2   
    21     8     9 1   
    22     8    19 1   
    23     8    35 1   
    24     9    10 ar  
    25     9    25 ar  
    26    10    11 ar  
    27    10    36 1   
    28    11    12 ar  
    29    11    37 1   
    30    12    24 ar  
    31    12    38 1   
    32    13    14 ar  
    33    13    18 ar  
    34    13    39 1   
    35    14    15 ar  
    36    14    19 1   
    37    15    16 ar  
    38    15    40 1   
    39    16    17 ar  
    40    16    41 1   
    41    17    18 ar  
    42    17    42 1   
    43    18    43 1   
    44    19    20 1   
    45    19    44 1   
    46    20    21 1   
    47    21    45 1   
    48    24    25 ar  
    49    24    46 1   
    50    25    47 1   
@<TRIPOS>SUBSTRUCTURE
     1 F28         1 TEMP              0 ****  ****    0 ROOT
