@<TRIPOS>MOLECULE
F29
   45    49     1     0     0
SMALL
abcg2


@<TRIPOS>ATOM
      1 C1          -5.0240    -2.5800     0.4240 cc         1 F29      -0.160000
      2 C2          -4.9660    -1.2390     0.2290 cd         1 F29      -0.074000
      3 N3          -3.7490    -0.6370     0.1480 na         1 F29       0.328400
      4 C4          -2.5630    -1.3260     0.2430 cd         1 F29      -0.077000
      5 C5          -2.6140    -2.7200     0.4580 cd         1 F29      -0.101000
      6 C6          -3.8290    -3.3330     0.5440 cc         1 F29      -0.087000
      7 N7          -3.5740     0.6690    -0.0270 nd         1 F29      -0.582100
      8 C8          -2.2560     0.8470    -0.0470 cc         1 F29       0.471200
      9 C9          -1.5610    -0.3640     0.1190 cc         1 F29      -0.354400
     10 C10         -0.1210    -0.5990     0.2060 ca         1 F29       0.331800
     11 C11         -1.7180     2.1980    -0.2490 ca         1 F29      -0.097900
     12 C12         -0.5570     2.4070    -0.9920 ca         1 F29      -0.076500
     13 C13         -0.0710     3.6900    -1.1930 ca         1 F29      -0.117000
     14 C14         -0.7390     4.7830    -0.6560 ca         1 F29      -0.100000
     15 C15         -1.9020     4.5850     0.0770 ca         1 F29      -0.117000
     16 C16         -2.3890     3.3020     0.2780 ca         1 F29      -0.076500
     17 C22          0.5000    -1.5930    -0.5500 ca         1 F29      -0.031000
     18 C23          1.8620    -1.7110    -0.3870 ca         1 F29      -0.256900
     19 C24          2.4720    -0.8170     0.5090 ca         1 F29       0.333500
     20 N25          1.8400     0.1180     1.2050 nb         1 F29      -0.325000
     21 N26          0.5520     0.2030     1.0510 nb         1 F29      -0.263000
     22 C27          2.9510    -2.4900    -0.8960 cc         1 F29       0.561800
     23 N28          4.0730    -2.0920    -0.3550 nd         1 F29      -0.563100
     24 N29          3.7870    -1.0980     0.5250 na         1 F29      -0.029100
     25 N30          2.8610    -3.5470    -1.7590 nv         1 F29      -0.972200
     26 C3           4.8480    -0.3180     1.1210 c3         1 F29       0.136800
     27 C7           5.2970     0.7930     0.2190 c2         1 F29      -0.258200
     28 C17          5.2360     2.0770     0.5470 c2         1 F29      -0.282000
     29 H1          -5.9890    -3.0600     0.4900 ha         1 F29       0.134000
     30 H2          -5.8250    -0.5920     0.1310 h4         1 F29       0.162000
     31 H5          -1.6940    -3.2800     0.5550 ha         1 F29       0.136000
     32 H6          -3.8860    -4.4000     0.7080 ha         1 F29       0.125000
     33 H12         -0.0380     1.5690    -1.4380 ha         1 F29       0.117000
     34 H13          0.8300     3.8360    -1.7750 ha         1 F29       0.111500
     35 H14         -0.3570     5.7840    -0.8110 ha         1 F29       0.110000
     36 H15         -2.4310     5.4310     0.4960 ha         1 F29       0.111500
     37 H16         -3.2910     3.1530     0.8590 ha         1 F29       0.117000
     38 H22         -0.0690    -2.2100    -1.2350 ha         1 F29       0.133000
     39 H301         3.7260    -3.7960    -2.2150 hn         1 F29       0.457500
     40 H302         2.0990    -3.4940    -2.4170 hn         1 F29       0.457500
     41 H31          4.4870     0.0740     2.0710 h1         1 F29       0.076200
     42 H32          5.6680    -1.0030     1.3360 h1         1 F29       0.076200
     43 H7           5.6870     0.4950    -0.7490 ha         1 F29       0.179000
     44 H171         4.8460     2.4020     1.5040 ha         1 F29       0.167500
     45 H172         5.5750     2.8500    -0.1300 ha         1 F29       0.167500
@<TRIPOS>BOND
     1     1     2 2   
     2     1     6 1   
     3     1    29 1   
     4     2     3 1   
     5     2    30 1   
     6     3     4 1   
     7     3     7 1   
     8     4     5 1   
     9     4     9 2   
    10     5     6 2   
    11     5    31 1   
    12     6    32 1   
    13     7     8 2   
    14     8     9 1   
    15     8    11 1   
    16     9    10 1   
    17    10    17 ar  
    18    10    21 ar  
    19    11    12 ar  
    20    11    16 ar  
    21    12    13 ar  
    22    12    33 1   
    23    13    14 ar  
    24    13    34 1   
    25    14    15 ar  
    26    14    35 1   
    27    15    16 ar  
    28    15    36 1   
    29    16    37 1   
    30    17    18 ar  
    31    17    38 1   
    32    18    19 ar  
    33    18    22 1   
    34    19    20 ar  
    35    19    24 1   
    36    20    21 ar  
    37    22    23 2   
    38    22    25 1   
    39    23    24 1   
    40    24    26 1   
    41    25    39 1   
    42    25    40 1   
    43    26    27 1   
    44    26    41 1   
    45    26    42 1   
    46    27    28 2   
    47    27    43 1   
    48    28    44 1   
    49    28    45 1   
@<TRIPOS>SUBSTRUCTURE
     1 F29         1 TEMP              0 ****  ****    0 ROOT
