@<TRIPOS>MOLECULE
F29
   45    49     1     0     0
SMALL
No Charge or Current Charge


@<TRIPOS>ATOM
      1 C1          -4.7450    -2.7010     0.6420 cc         1 F29      -0.160000
      2 C2          -4.9100    -1.3290     0.4500 cd         1 F29      -0.074000
      3 N3          -3.7260    -0.6230     0.2290 na         1 F29       0.328400
      4 C4          -2.5010    -1.2460     0.2010 cd         1 F29      -0.077000
      5 C5          -2.2990    -2.6420     0.4230 cd         1 F29      -0.101000
      6 C6          -3.4570    -3.3590     0.6350 cc         1 F29      -0.087000
      7 N7          -3.6970     0.7440     0.1060 nd         1 F29      -0.582100
      8 C8          -2.3880     0.9690    -0.0220 cc         1 F29       0.471200
      9 C9          -1.6090    -0.2330    -0.0040 cc         1 F29      -0.354400
     10 C10         -0.1660    -0.4440     0.0690 ca         1 F29       0.331800
     11 C11         -1.8900     2.3400    -0.2750 ca         1 F29      -0.097900
     12 C12         -0.6440     2.5850    -0.9010 ca         1 F29      -0.076500
     13 C13         -0.2120     3.8960    -1.1660 ca         1 F29      -0.117000
     14 C14         -1.0240     4.9890    -0.8310 ca         1 F29      -0.100000
     15 C15         -2.2780     4.7670    -0.2450 ca         1 F29      -0.117000
     16 C16         -2.7120     3.4570     0.0190 ca         1 F29      -0.076500
     17 C22          0.4700    -1.4690    -0.6720 ca         1 F29      -0.031000
     18 C23          1.8520    -1.6140    -0.4630 ca         1 F29      -0.256900
     19 C24          2.5180    -0.8190     0.4250 ca         1 F29       0.333500
     20 N25          1.8740     0.1340     1.1390 nb         1 F29      -0.325000
     21 N26          0.5400     0.3120     0.9610 nb         1 F29      -0.263000
     22 C27          2.8400    -2.4950    -1.0000 cc         1 F29       0.561800
     23 N28          4.0570    -2.3100    -0.5210 nd         1 F29      -0.563100
     24 N29          3.8360    -1.2550     0.3710 na         1 F29      -0.029100
     25 N30          2.6010    -3.4370    -1.9220 nv         1 F29      -0.972200
     26 C3           4.9160    -0.6460     1.1670 c3         1 F29       0.136800
     27 C7           5.5590     0.5310     0.4560 c2         1 F29      -0.258200
     28 C17          5.5380     1.8060     0.8810 c2         1 F29      -0.282000
     29 H1          -5.6210    -3.3180     0.8180 ha         1 F29       0.134000
     30 H2          -5.8440    -0.7820     0.4610 h4         1 F29       0.162000
     31 H5          -1.3240    -3.1160     0.4370 ha         1 F29       0.136000
     32 H6          -3.4160    -4.4310     0.8070 ha         1 F29       0.125000
     33 H12         -0.0080     1.7670    -1.2210 ha         1 F29       0.117000
     34 H13          0.7510     4.0630    -1.6440 ha         1 F29       0.111500
     35 H14         -0.6890     6.0040    -1.0390 ha         1 F29       0.110000
     36 H15         -2.9180     5.6110     0.0030 ha         1 F29       0.111500
     37 H16         -3.6900     3.3170     0.4740 ha         1 F29       0.117000
     38 H22         -0.0810    -2.0910    -1.3710 ha         1 F29       0.133000
     39 H301         3.4140    -3.8360    -2.3780 hn         1 F29       0.457500
     40 H302         1.7570    -3.3590    -2.4760 hn         1 F29       0.457500
     41 H31          4.5060    -0.3290     2.1340 h1         1 F29       0.076200
     42 H32          5.6750    -1.4130     1.3700 h1         1 F29       0.076200
     43 H7           6.0680     0.2640    -0.4730 ha         1 F29       0.179000
     44 H171         5.0350     2.0990     1.8040 ha         1 F29       0.167500
     45 H172         6.0240     2.6050     0.3160 ha         1 F29       0.167500
@<TRIPOS>BOND
     1     1     2 2   
     2     1     6 1   
     3     1    29 1   
     4     2     3 1   
     5     2    30 1   
     6     3     4 1   
     7     3     7 1   
     8     4     5 1   
     9     4     9 2   
    10     5     6 2   
    11     5    31 1   
    12     6    32 1   
    13     7     8 2   
    14     8     9 1   
    15     8    11 1   
    16     9    10 1   
    17    10    17 ar  
    18    10    21 ar  
    19    11    12 ar  
    20    11    16 ar  
    21    12    13 ar  
    22    12    33 1   
    23    13    14 ar  
    24    13    34 1   
    25    14    15 ar  
    26    14    35 1   
    27    15    16 ar  
    28    15    36 1   
    29    16    37 1   
    30    17    18 ar  
    31    17    38 1   
    32    18    19 ar  
    33    18    22 1   
    34    19    20 ar  
    35    19    24 1   
    36    20    21 ar  
    37    22    23 2   
    38    22    25 1   
    39    23    24 1   
    40    24    26 1   
    41    25    39 1   
    42    25    40 1   
    43    26    27 1   
    44    26    41 1   
    45    26    42 1   
    46    27    28 2   
    47    27    43 1   
    48    28    44 1   
    49    28    45 1   
@<TRIPOS>SUBSTRUCTURE
     1 F29         1 TEMP              0 ****  ****    0 ROOT
