@<TRIPOS>MOLECULE
F2B
   34    35     1     0     0
SMALL
abcg2


@<TRIPOS>ATOM
      1 C01         -0.9450     1.0850     1.6400 ca         1 F2B      -0.096500
      2 C02         -0.3150     1.0370     2.8730 ca         1 F2B      -0.017000
      3 C03          0.2040    -0.1700     3.3150 ca         1 F2B      -0.253500
      4 C04          0.1090    -1.3220     2.5470 ca         1 F2B      -0.017000
      5 C05         -0.5100    -1.2580     1.3120 ca         1 F2B      -0.096500
      6 C06         -1.0330    -0.0520     0.8450 ca         1 F2B      -0.096600
      7 C07         -1.7250     0.0670    -0.4790 c          1 F2B       0.613700
      8 O08         -2.6180     0.8830    -0.6420 o          1 F2B      -0.583100
      9 N09         -1.2880    -0.7700    -1.4340 ns         1 F2B      -0.501900
     10 C10         -1.8050    -0.8010    -2.7840 c3         1 F2B       0.150300
     11 S11          1.0500    -0.2490     4.8720 sy         1 F2B       1.125600
     12 NP2          0.0220    -1.1980     5.7450 n8         1 F2B      -1.007100
     13 O13          1.1530     1.1070     5.3900 o          1 F2B      -0.541000
     14 O14          2.2710    -1.0240     4.7090 o          1 F2B      -0.541000
     15 C15         -0.7400    -0.4840    -3.7990 ca         1 F2B      -0.136300
     16 C16         -0.3150    -1.4360    -4.7220 ca         1 F2B      -0.094000
     17 C17          0.6750    -1.1430    -5.6490 ca         1 F2B      -0.102000
     18 C18          1.2670     0.1120    -5.6700 ca         1 F2B      -0.120000
     19 C19          0.8500     1.0570    -4.7560 ca         1 F2B       0.132000
     20 C20         -0.1400     0.7640    -3.8350 ca         1 F2B       0.150000
     21 F21          1.3930     2.2790    -4.7490 f          1 F2B      -0.158000
     22 F22         -0.5170     1.7120    -2.9700 f          1 F2B      -0.151000
     23 H01C        -1.3580     2.0230     1.2930 ha         1 F2B       0.130000
     24 H02C        -0.2350     1.9320     3.4730 ha         1 F2B       0.140500
     25 H04C         0.4990    -2.2660     2.9040 ha         1 F2B       0.140500
     26 H05C        -0.5980    -2.1670     0.7310 ha         1 F2B       0.130000
     27 H09N        -0.4960    -1.3620    -1.2430 hn         1 F2B       0.318500
     28 H101        -2.2100    -1.7920    -2.9960 h1         1 F2B       0.072200
     29 H102        -2.6340    -0.0970    -2.8500 h1         1 F2B       0.072200
     30 HNP1         0.4900    -1.6180     6.5430 hn         1 F2B       0.476000
     31 HNP2        -0.8130    -0.7040     6.0430 hn         1 F2B       0.476000
     32 H16C        -0.7690    -2.4180    -4.7090 ha         1 F2B       0.121000
     33 H17C         0.9930    -1.8950    -6.3580 ha         1 F2B       0.125000
     34 H18C         2.0420     0.3560    -6.3840 ha         1 F2B       0.138000
@<TRIPOS>BOND
     1     1     2 ar  
     2     1     6 ar  
     3     1    23 1   
     4     2     3 ar  
     5     2    24 1   
     6     3     4 ar  
     7     3    11 1   
     8     4     5 ar  
     9     4    25 1   
    10     5     6 ar  
    11     5    26 1   
    12     6     7 1   
    13     7     8 2   
    14     7     9 1   
    15     9    10 1   
    16     9    27 1   
    17    10    15 1   
    18    10    28 1   
    19    10    29 1   
    20    11    12 1   
    21    11    13 2   
    22    11    14 2   
    23    12    30 1   
    24    12    31 1   
    25    15    16 ar  
    26    15    20 ar  
    27    16    17 ar  
    28    16    32 1   
    29    17    18 ar  
    30    17    33 1   
    31    18    19 ar  
    32    18    34 1   
    33    19    20 ar  
    34    19    21 1   
    35    20    22 1   
@<TRIPOS>SUBSTRUCTURE
     1 F2B         1 TEMP              0 ****  ****    0 ROOT
