@<TRIPOS>MOLECULE
F2B
   34    35     1     0     0
SMALL
No Charge or Current Charge


@<TRIPOS>ATOM
      1 C01         -1.8780     0.5570     2.1510 ca         1 F2B      -0.096500
      2 C02         -1.2550     0.3900     3.4000 ca         1 F2B      -0.017000
      3 C03          0.0610    -0.1040     3.4730 ca         1 F2B      -0.253500
      4 C04          0.7450    -0.4340     2.2870 ca         1 F2B      -0.017000
      5 C05          0.1200    -0.2670     1.0380 ca         1 F2B      -0.096500
      6 C06         -1.2040     0.2320     0.9510 ca         1 F2B      -0.096600
      7 C07         -1.9120     0.4270    -0.3780 c          1 F2B       0.613700
      8 O08         -3.0550     0.8570    -0.4540 o          1 F2B      -0.583100
      9 N09         -1.2070     0.0940    -1.5140 ns         1 F2B      -0.501900
     10 C10         -1.7290     0.2180    -2.8720 c3         1 F2B       0.150300
     11 S11          0.8600    -0.3190     5.0690 sy         1 F2B       1.125600
     12 NP2          0.4610    -1.8450     5.4820 n8         1 F2B      -1.007100
     13 O13          0.2090     0.4940     6.0940 o          1 F2B      -0.541000
     14 O14          2.3130    -0.3730     4.9230 o          1 F2B      -0.541000
     15 C15         -0.6790    -0.1850    -3.8970 ca         1 F2B      -0.136300
     16 C16         -0.5550    -1.5380    -4.2760 ca         1 F2B      -0.094000
     17 C17          0.4120    -1.9280    -5.2200 ca         1 F2B      -0.102000
     18 C18          1.2660    -0.9690    -5.7930 ca         1 F2B      -0.120000
     19 C19          1.1500     0.3790    -5.4190 ca         1 F2B       0.132000
     20 C20          0.1820     0.7730    -4.4740 ca         1 F2B       0.150000
     21 F21          1.9770     1.2970    -5.9730 f          1 F2B      -0.158000
     22 F22          0.0850     2.0760    -4.1180 f          1 F2B      -0.151000
     23 H01C        -2.8950     0.9410     2.1200 ha         1 F2B       0.130000
     24 H02C        -1.8010     0.6470     4.3070 ha         1 F2B       0.140500
     25 H04C         1.7620    -0.8220     2.3260 ha         1 F2B       0.140500
     26 H05C         0.6830    -0.5340     0.1480 ha         1 F2B       0.130000
     27 H09N        -0.2670    -0.2580    -1.3920 hn         1 F2B       0.318500
     28 H101        -2.6130    -0.4260    -2.9740 h1         1 F2B       0.072200
     29 H102        -2.0510     1.2550    -3.0420 h1         1 F2B       0.072200
     30 HNP1         1.3820    -2.2240     5.6920 hn         1 F2B       0.476000
     31 HNP2         0.0790    -1.6890     6.4110 hn         1 F2B       0.476000
     32 H16C        -1.2090    -2.2900    -3.8380 ha         1 F2B       0.121000
     33 H17C         0.5000    -2.9750    -5.5070 ha         1 F2B       0.125000
     34 H18C         2.0150    -1.2680    -6.5220 ha         1 F2B       0.138000
@<TRIPOS>BOND
     1     1     2 ar  
     2     1     6 ar  
     3     1    23 1   
     4     2     3 ar  
     5     2    24 1   
     6     3     4 ar  
     7     3    11 1   
     8     4     5 ar  
     9     4    25 1   
    10     5     6 ar  
    11     5    26 1   
    12     6     7 1   
    13     7     8 2   
    14     7     9 1   
    15     9    10 1   
    16     9    27 1   
    17    10    15 1   
    18    10    28 1   
    19    10    29 1   
    20    11    12 1   
    21    11    13 2   
    22    11    14 2   
    23    12    30 1   
    24    12    31 1   
    25    15    16 ar  
    26    15    20 ar  
    27    16    17 ar  
    28    16    32 1   
    29    17    18 ar  
    30    17    33 1   
    31    18    19 ar  
    32    18    34 1   
    33    19    20 ar  
    34    19    21 1   
    35    20    22 1   
@<TRIPOS>SUBSTRUCTURE
     1 F2B         1 TEMP              0 ****  ****    0 ROOT
