@<TRIPOS>MOLECULE
F2C
   49    51     1     0     0
SMALL
No Charge or Current Charge


@<TRIPOS>ATOM
      1 C1          10.2280    -1.2850    -1.2100 ca         1 F2C      -0.111000
      2 C2           9.1120    -0.4300    -1.2080 ca         1 F2C      -0.107500
      3 C3           8.5490     0.0000     0.0100 ca         1 F2C      -0.073300
      4 C4           9.1120    -0.4360     1.2250 ca         1 F2C      -0.107500
      5 C5          10.2280    -1.2910     1.2230 ca         1 F2C      -0.111000
      6 C6          10.7870    -1.7150     0.0050 ca         1 F2C      -0.115000
      7 C7           7.3370     0.9220     0.0120 c3         1 F2C      -0.033100
      8 C8           6.0090     0.1350     0.0070 c3         1 F2C      -0.073400
      9 C9           4.7620     1.0470     0.0100 c3         1 F2C      -0.076400
     10 C10          3.4360     0.2560     0.0040 c3         1 F2C      -0.076400
     11 C11          2.1890     1.1670     0.0070 c3         1 F2C      -0.068400
     12 C12          0.8610     0.3690     0.0010 c3         1 F2C      -0.167400
     13 C13         -0.4370     1.2060     0.0040 c          1 F2C       0.520600
     14 O14         -0.3880     2.4350     0.0100 o          1 F2C      -0.509100
     15 C15         -1.7360     0.4460    -0.0020 cc         1 F2C       0.309500
     16 N16         -1.8940    -0.8860    -0.0090 nd         1 F2C      -0.657000
     17 C17         -3.2650    -1.0800    -0.0130 cd         1 F2C       0.237900
     18 C18         -3.8560     0.1520    -0.0070 cc         1 F2C       0.115000
     19 O19         -2.9220     1.1360    -0.0010 os         1 F2C      -0.221000
     20 C20         -5.3030     0.4000    -0.0080 ca         1 F2C       0.261000
     21 N21         -6.1380    -0.6690    -0.0150 nb         1 F2C      -0.622000
     22 C22         -7.4960    -0.4730    -0.0160 ca         1 F2C       0.290500
     23 C23         -8.0350     0.8360    -0.0110 ca         1 F2C      -0.117000
     24 C24         -7.1780     1.9470    -0.0030 ca         1 F2C      -0.118000
     25 C25         -5.7940     1.7210    -0.0020 ca         1 F2C      -0.156000
     26 C26         -8.4540    -1.6960    -0.0240 c          1 F2C       0.613500
     27 O27         -9.6650    -1.5010    -0.0250 o          1 F2C      -0.695500
     28 O28         -7.9840    -2.8310    -0.0300 o          1 F2C      -0.695500
     29 H1          10.6590    -1.6130    -2.1530 ha         1 F2C       0.109000
     30 H2           8.6840    -0.1030    -2.1530 ha         1 F2C       0.111000
     31 H4           8.6840    -0.1150     2.1720 ha         1 F2C       0.111000
     32 H5          10.6590    -1.6250     2.1640 ha         1 F2C       0.109000
     33 H6          11.6510    -2.3770     0.0030 ha         1 F2C       0.108000
     34 H7           7.3640     1.5770     0.8920 hc         1 F2C       0.045700
     35 H7A          7.3660     1.5840    -0.8620 hc         1 F2C       0.045700
     36 H8           5.9810    -0.5140    -0.8780 hc         1 F2C       0.042700
     37 H8A          5.9790    -0.5220     0.8860 hc         1 F2C       0.042700
     38 H9           4.7920     1.6950     0.8950 hc         1 F2C       0.037700
     39 H9A          4.7940     1.7030    -0.8690 hc         1 F2C       0.037700
     40 H10          3.4070    -0.3920    -0.8810 hc         1 F2C       0.039200
     41 H10A         3.4040    -0.4010     0.8830 hc         1 F2C       0.039200
     42 H11          2.2180     1.8140     0.8920 hc         1 F2C       0.048200
     43 H11A         2.2210     1.8230    -0.8730 hc         1 F2C       0.048200
     44 H12          0.8040    -0.3250    -0.8460 hc         1 F2C       0.078700
     45 H12A         0.8020    -0.3320     0.8420 hc         1 F2C       0.078700
     46 H17         -3.7240    -2.0610    -0.0180 h4         1 F2C       0.076100
     47 H23         -9.1110     0.9870    -0.0110 ha         1 F2C       0.143000
     48 H24         -7.5770     2.9590     0.0010 ha         1 F2C       0.097000
     49 H25         -5.1080     2.5640     0.0030 ha         1 F2C       0.113000
@<TRIPOS>BOND
     1     1     2 ar  
     2     1     6 ar  
     3     1    29 1   
     4     2     3 ar  
     5     2    30 1   
     6     3     4 ar  
     7     3     7 1   
     8     4     5 ar  
     9     4    31 1   
    10     5     6 ar  
    11     5    32 1   
    12     6    33 1   
    13     7     8 1   
    14     7    34 1   
    15     7    35 1   
    16     8     9 1   
    17     8    36 1   
    18     8    37 1   
    19     9    10 1   
    20     9    38 1   
    21     9    39 1   
    22    10    11 1   
    23    10    40 1   
    24    10    41 1   
    25    11    12 1   
    26    11    42 1   
    27    11    43 1   
    28    12    13 1   
    29    12    44 1   
    30    12    45 1   
    31    13    14 2   
    32    13    15 1   
    33    15    16 2   
    34    15    19 1   
    35    16    17 1   
    36    17    18 2   
    37    17    46 1   
    38    18    19 1   
    39    18    20 1   
    40    20    21 ar  
    41    20    25 ar  
    42    21    22 ar  
    43    22    23 ar  
    44    22    26 1   
    45    23    24 ar  
    46    23    47 1   
    47    24    25 ar  
    48    24    48 1   
    49    25    49 1   
    50    26    27 1   
    51    26    28 1   
@<TRIPOS>SUBSTRUCTURE
     1 F2C         1 TEMP              0 ****  ****    0 ROOT
