@<TRIPOS>MOLECULE
F2C
   49    51     1     0     0
SMALL
abcg2


@<TRIPOS>ATOM
      1 C1          10.1720    -1.1130    -1.1830 ca         1 F2C      -0.111000
      2 C2           9.0390    -0.3100    -1.1980 ca         1 F2C      -0.107500
      3 C3           8.4340     0.1000    -0.0120 ca         1 F2C      -0.073300
      4 C4           8.9930    -0.3200     1.1940 ca         1 F2C      -0.107500
      5 C5          10.1260    -1.1220     1.2160 ca         1 F2C      -0.111000
      6 C6          10.7210    -1.5230     0.0260 ca         1 F2C      -0.115000
      7 C7           7.1870     0.9380    -0.0310 c3         1 F2C      -0.033100
      8 C8           5.9130     0.0910     0.0010 c3         1 F2C      -0.073400
      9 C9           4.6510     0.9430    -0.0190 c3         1 F2C      -0.076400
     10 C10          3.3680     0.1220     0.0180 c3         1 F2C      -0.076400
     11 C11          2.1190     0.9950    -0.0020 c3         1 F2C      -0.068400
     12 C12          0.8460     0.1670     0.0400 c3         1 F2C      -0.167400
     13 C13         -0.4120     0.9840     0.0370 c          1 F2C       0.520600
     14 O14         -0.4440     2.1920     0.0580 o          1 F2C      -0.509100
     15 C15         -1.6790     0.2240     0.0140 cc         1 F2C       0.309500
     16 N16         -1.8510    -1.0570    -0.0090 nd         1 F2C      -0.657000
     17 C17         -3.2040    -1.2340    -0.0190 cd         1 F2C       0.237900
     18 C18         -3.8050    -0.0110    -0.0010 cc         1 F2C       0.115000
     19 O19         -2.8280     0.9120     0.0200 os         1 F2C      -0.221000
     20 C20         -5.1970     0.4100    -0.0020 ca         1 F2C       0.261000
     21 N21         -6.0780    -0.5860    -0.0350 nb         1 F2C      -0.622000
     22 C22         -7.3720    -0.3010    -0.0370 ca         1 F2C       0.290500
     23 C23         -7.8340     1.0150    -0.0070 ca         1 F2C      -0.117000
     24 C24         -6.9160     2.0500     0.0280 ca         1 F2C      -0.118000
     25 C25         -5.5630     1.7530     0.0300 ca         1 F2C      -0.156000
     26 C26         -8.3650    -1.4690    -0.0750 c          1 F2C       0.613500
     27 O27         -9.5680    -1.1490    -0.0570 o          1 F2C      -0.695500
     28 O28         -7.8810    -2.6100    -0.1210 o          1 F2C      -0.695500
     29 H1          10.6310    -1.4130    -2.1170 ha         1 F2C       0.109000
     30 H2           8.6210     0.0060    -2.1470 ha         1 F2C       0.111000
     31 H4           8.5390    -0.0100     2.1290 ha         1 F2C       0.111000
     32 H5          10.5490    -1.4290     2.1640 ha         1 F2C       0.109000
     33 H6          11.6060    -2.1450     0.0410 ha         1 F2C       0.108000
     34 H7           7.1840     1.6170     0.8260 hc         1 F2C       0.045700
     35 H7A          7.1780     1.5660    -0.9270 hc         1 F2C       0.045700
     36 H8           5.9100    -0.5930    -0.8550 hc         1 F2C       0.042700
     37 H8A          5.9190    -0.5390     0.8970 hc         1 F2C       0.042700
     38 H9           4.6650     1.6300     0.8340 hc         1 F2C       0.037700
     39 H9A          4.6530     1.5730    -0.9160 hc         1 F2C       0.037700
     40 H10          3.3490    -0.5660    -0.8340 hc         1 F2C       0.039200
     41 H10A         3.3620    -0.5050     0.9170 hc         1 F2C       0.039200
     42 H11          2.1450     1.6810     0.8500 hc         1 F2C       0.048200
     43 H11A         2.1280     1.6180    -0.9000 hc         1 F2C       0.048200
     44 H12          0.8050    -0.5290    -0.8040 hc         1 F2C       0.078700
     45 H12A         0.8280    -0.4710     0.9310 hc         1 F2C       0.078700
     46 H17         -3.6640    -2.2080    -0.0390 h4         1 F2C       0.076100
     47 H23         -8.8960     1.2120    -0.0100 ha         1 F2C       0.143000
     48 H24         -7.2450     3.0810     0.0510 ha         1 F2C       0.097000
     49 H25         -4.8230     2.5410     0.0570 ha         1 F2C       0.113000
@<TRIPOS>BOND
     1     1     2 ar  
     2     1     6 ar  
     3     1    29 1   
     4     2     3 ar  
     5     2    30 1   
     6     3     4 ar  
     7     3     7 1   
     8     4     5 ar  
     9     4    31 1   
    10     5     6 ar  
    11     5    32 1   
    12     6    33 1   
    13     7     8 1   
    14     7    34 1   
    15     7    35 1   
    16     8     9 1   
    17     8    36 1   
    18     8    37 1   
    19     9    10 1   
    20     9    38 1   
    21     9    39 1   
    22    10    11 1   
    23    10    40 1   
    24    10    41 1   
    25    11    12 1   
    26    11    42 1   
    27    11    43 1   
    28    12    13 1   
    29    12    44 1   
    30    12    45 1   
    31    13    14 2   
    32    13    15 1   
    33    15    16 2   
    34    15    19 1   
    35    16    17 1   
    36    17    18 2   
    37    17    46 1   
    38    18    19 1   
    39    18    20 1   
    40    20    21 ar  
    41    20    25 ar  
    42    21    22 ar  
    43    22    23 ar  
    44    22    26 1   
    45    23    24 ar  
    46    23    47 1   
    47    24    25 ar  
    48    24    48 1   
    49    25    49 1   
    50    26    27 1   
    51    26    28 1   
@<TRIPOS>SUBSTRUCTURE
     1 F2C         1 TEMP              0 ****  ****    0 ROOT
