@<TRIPOS>MOLECULE
F2D
   46    47     1     0     0
SMALL
No Charge or Current Charge


@<TRIPOS>ATOM
      1 C1          12.4820    27.5640    14.9440 ca         1 F2D      -0.209600
      2 C2          12.2310    28.8060    14.3210 ca         1 F2D      -0.019000
      3 C3          12.8100    29.0920    13.0740 ca         1 F2D      -0.162000
      4 C4          13.6340    28.1430    12.4510 ca         1 F2D      -0.049000
      5 C5          13.8750    26.9110    13.0820 ca         1 F2D      -0.183000
      6 C6          13.2980    26.6220    14.3310 ca         1 F2D       0.321000
      7 C18         13.0730    24.9740    16.1450 cc         1 F2D       0.156800
      8 C19         12.2310    25.8730    16.7910 cd         1 F2D      -0.262400
      9 C20         11.8970    27.2150    16.2500 c          1 F2D       0.593900
     10 C22         11.5780    25.5620    18.1310 c3         1 F2D      -0.029900
     11 C23         13.4800    23.6120    16.6630 c3         1 F2D      -0.012000
     12 C24         12.4870    22.5310    16.2820 c2         1 F2D      -0.232200
     13 C25         11.9600    21.6300    17.1260 c2         1 F2D      -0.194200
     14 C26         10.9490    20.5660    16.7450 c3         1 F2D      -0.043200
     15 C27         11.5510    19.1430    16.7020 c3         1 F2D      -0.070400
     16 C28         12.0390    18.6220    18.0740 c3         1 F2D      -0.075400
     17 C29         12.5790    17.1740    18.0080 c3         1 F2D      -0.074400
     18 C30         13.1520    16.6450    19.3450 c3         1 F2D      -0.073400
     19 C31         12.1090    16.4970    20.4720 c3         1 F2D      -0.089100
     20 N13         13.5760    25.3900    14.9050 na         1 F2D      -0.791000
     21 O21         11.1760    28.0110    16.8430 o          1 F2D      -0.574100
     22 H2          11.5920    29.5480    14.7980 ha         1 F2D       0.138000
     23 H3          12.6180    30.0480    12.5910 ha         1 F2D       0.119000
     24 H4          14.0840    28.3600    11.4840 ha         1 F2D       0.114000
     25 H5          14.5150    26.1800    12.5950 ha         1 F2D       0.113000
     26 H221        10.5420    25.9200    18.1760 hc         1 F2D       0.043367
     27 H22         11.5310    24.4870    18.3350 hc         1 F2D       0.043367
     28 H222        12.1300    26.0310    18.9540 hc         1 F2D       0.043367
     29 H231        14.4660    23.3500    16.2580 hc         1 F2D       0.061700
     30 H23         13.6230    23.6480    17.7500 hc         1 F2D       0.061700
     31 H24         12.2060    22.5320    15.2270 ha         1 F2D       0.173000
     32 H25         12.2330    21.6360    18.1830 ha         1 F2D       0.169000
     33 H26         10.5270    20.7890    15.7570 hc         1 F2D       0.048200
     34 H261        10.1050    20.5830    17.4460 hc         1 F2D       0.048200
     35 H27         10.7900    18.4560    16.3120 hc         1 F2D       0.039200
     36 H271        12.3840    19.1290    15.9880 hc         1 F2D       0.039200
     37 H28         12.8300    19.2790    18.4540 hc         1 F2D       0.039200
     38 H281        11.2070    18.6710    18.7870 hc         1 F2D       0.039200
     39 H291        11.7820    16.5020    17.6670 hc         1 F2D       0.036700
     40 H29         13.3720    17.1280    17.2510 hc         1 F2D       0.036700
     41 H30         13.6090    15.6640    19.1640 hc         1 F2D       0.036700
     42 H301        13.9590    17.3070    19.6840 hc         1 F2D       0.036700
     43 H312        12.5690    16.0400    21.3570 hc         1 F2D       0.031700
     44 H31         11.7060    17.4720    20.7690 hc         1 F2D       0.031700
     45 H311        11.2770    15.8590    20.1510 hc         1 F2D       0.031700
     46 H1          14.1850    24.7580    14.3900 hn         1 F2D       0.501000
@<TRIPOS>BOND
     1     1     2 ar  
     2     1     6 ar  
     3     1     9 1   
     4     2     3 ar  
     5     2    22 1   
     6     3     4 ar  
     7     3    23 1   
     8     4     5 ar  
     9     4    24 1   
    10     5     6 ar  
    11     5    25 1   
    12     6    20 1   
    13     7     8 2   
    14     7    11 1   
    15     7    20 1   
    16     8     9 1   
    17     8    10 1   
    18     9    21 2   
    19    10    26 1   
    20    10    27 1   
    21    10    28 1   
    22    11    12 1   
    23    11    29 1   
    24    11    30 1   
    25    12    13 2   
    26    12    31 1   
    27    13    14 1   
    28    13    32 1   
    29    14    15 1   
    30    14    33 1   
    31    14    34 1   
    32    15    16 1   
    33    15    35 1   
    34    15    36 1   
    35    16    17 1   
    36    16    37 1   
    37    16    38 1   
    38    17    18 1   
    39    17    39 1   
    40    17    40 1   
    41    18    19 1   
    42    18    41 1   
    43    18    42 1   
    44    19    43 1   
    45    19    44 1   
    46    19    45 1   
    47    20    46 1   
@<TRIPOS>SUBSTRUCTURE
     1 F2D         1 TEMP              0 ****  ****    0 ROOT
