@<TRIPOS>MOLECULE
F2D
   46    47     1     0     0
SMALL
bcc


@<TRIPOS>ATOM
      1 C1          12.5310    27.3380    14.9440 ca         1 F2D      -0.209600
      2 C2          12.3380    28.5300    14.2300 ca         1 F2D      -0.037000
      3 C3          13.0070    28.7650    13.0510 ca         1 F2D      -0.180000
      4 C4          13.8960    27.8040    12.5520 ca         1 F2D      -0.067000
      5 C5          14.1050    26.6260    13.2280 ca         1 F2D      -0.201000
      6 C6          13.4200    26.3890    14.4290 ca         1 F2D       0.182600
      7 C18         12.9830    24.9450    16.2810 cc         1 F2D       0.156800
      8 C19         12.0990    25.8220    16.8480 cd         1 F2D      -0.262400
      9 C20         11.8210    27.0880    16.2050 c          1 F2D       0.593900
     10 C22         11.4090    25.4900    18.1390 c3         1 F2D      -0.029900
     11 C23         13.2880    23.5930    16.8650 c3         1 F2D      -0.012000
     12 C24         12.2630    22.5760    16.4490 c2         1 F2D      -0.182200
     13 C25         11.6370    21.7560    17.2880 c2         1 F2D      -0.144200
     14 C26         10.6740    20.6900    16.8610 c3         1 F2D      -0.043200
     15 C27         11.3310    19.3120    16.7230 c3         1 F2D      -0.070400
     16 C28         11.9840    18.7920    17.9960 c3         1 F2D      -0.075400
     17 C29         12.5890    17.4040    17.8140 c3         1 F2D      -0.074400
     18 C30         13.3870    16.9060    19.0170 c3         1 F2D      -0.073400
     19 C31         12.5510    16.6990    20.2730 c3         1 F2D      -0.089100
     20 N13         13.6130    25.2270    15.1180 na         1 F2D      -0.597400
     21 O21         11.0380    27.9230    16.6670 o          1 F2D      -0.574100
     22 H2          11.6520    29.2680    14.6240 ha         1 F2D       0.156000
     23 H3          12.8500    29.6890    12.5100 ha         1 F2D       0.137000
     24 H4          14.4230    27.9870    11.6250 ha         1 F2D       0.132000
     25 H5          14.7910    25.8800    12.8450 ha         1 F2D       0.131000
     26 H221        10.6850    26.2610    18.3910 hc         1 F2D       0.043367
     27 H22         10.8780    24.5390    18.0870 hc         1 F2D       0.043367
     28 H222        12.1130    25.4180    18.9710 hc         1 F2D       0.043367
     29 H231        14.2800    23.2730    16.5290 hc         1 F2D       0.061700
     30 H23         13.3380    23.6570    17.9530 hc         1 F2D       0.061700
     31 H24         12.0560    22.5130    15.3830 ha         1 F2D       0.123000
     32 H25         11.8580    21.8300    18.3500 ha         1 F2D       0.119000
     33 H26         10.2260    20.9620    15.9030 hc         1 F2D       0.048200
     34 H261         9.8550    20.6260    17.5840 hc         1 F2D       0.048200
     35 H27         10.5730    18.5970    16.3870 hc         1 F2D       0.039200
     36 H271        12.0800    19.3630    15.9260 hc         1 F2D       0.039200
     37 H28         12.7740    19.4810    18.3170 hc         1 F2D       0.039200
     38 H281        11.2450    18.7800    18.8030 hc         1 F2D       0.039200
     39 H291        11.7940    16.6860    17.5830 hc         1 F2D       0.036700
     40 H29         13.2440    17.4200    16.9380 hc         1 F2D       0.036700
     41 H30         13.8740    15.9640    18.7530 hc         1 F2D       0.036700
     42 H301        14.1950    17.6140    19.2270 hc         1 F2D       0.036700
     43 H312        13.1560    16.2970    21.0870 hc         1 F2D       0.031700
     44 H31         12.1090    17.6310    20.6280 hc         1 F2D       0.031700
     45 H311        11.7360    15.9960    20.0910 hc         1 F2D       0.031700
     46 H1          14.2580    24.5490    14.7390 hn         1 F2D       0.445800
@<TRIPOS>BOND
     1     1     2 ar  
     2     1     6 ar  
     3     1     9 1   
     4     2     3 ar  
     5     2    22 1   
     6     3     4 ar  
     7     3    23 1   
     8     4     5 ar  
     9     4    24 1   
    10     5     6 ar  
    11     5    25 1   
    12     6    20 1   
    13     7     8 2   
    14     7    11 1   
    15     7    20 1   
    16     8     9 1   
    17     8    10 1   
    18     9    21 2   
    19    10    26 1   
    20    10    27 1   
    21    10    28 1   
    22    11    12 1   
    23    11    29 1   
    24    11    30 1   
    25    12    13 2   
    26    12    31 1   
    27    13    14 1   
    28    13    32 1   
    29    14    15 1   
    30    14    33 1   
    31    14    34 1   
    32    15    16 1   
    33    15    35 1   
    34    15    36 1   
    35    16    17 1   
    36    16    37 1   
    37    16    38 1   
    38    17    18 1   
    39    17    39 1   
    40    17    40 1   
    41    18    19 1   
    42    18    41 1   
    43    18    42 1   
    44    19    43 1   
    45    19    44 1   
    46    19    45 1   
    47    20    46 1   
@<TRIPOS>SUBSTRUCTURE
     1 F2D         1 TEMP              0 ****  ****    0 ROOT
