@<TRIPOS>MOLECULE
F2E
   66    68     1     0     0
SMALL
No Charge or Current Charge


@<TRIPOS>ATOM
      1 N           79.0890    68.2900   116.5040 ns         1 F2E      -0.481900
      2 CA          80.3850    67.5670   116.3880 c3         1 F2E       0.033700
      3 C           80.6820    66.7440   117.6770 c          1 F2E       0.599100
      4 O           80.1230    67.0030   118.7410 o          1 F2E      -0.603100
      5 CB          81.5720    68.5060   115.9910 c3         1 F2E       0.173300
      6 OG1         81.4500    69.8140   116.6000 os         1 F2E      -0.486000
      7 CG2         81.6570    68.7550   114.4730 c3         1 F2E      -0.091100
      8 CAB         73.0980    72.0450   116.9660 ca         1 F2E       0.283000
      9 CAC         72.9610    70.6500   116.9810 ca         1 F2E      -0.175000
     10 CAD         73.9060    69.8390   116.3280 ca         1 F2E      -0.059000
     11 CAE         74.9950    70.4250   115.6540 ca         1 F2E      -0.164300
     12 CAF         76.0210    69.5520   114.9490 c3         1 F2E       0.165300
     13 CAH         78.1970    68.4620   115.4830 c          1 F2E       0.641100
     14 CAN         81.6670    69.8860   118.0230 c3         1 F2E       0.164600
     15 CAO         81.7440    71.3740   118.4160 c3         1 F2E      -0.074400
     16 CAP         82.9730    72.1170   117.8490 c3         1 F2E       0.162600
     17 CAU         83.2990    65.6300   115.8350 ca         1 F2E       0.231000
     18 CAV         84.2780    66.2000   116.6810 ca         1 F2E      -0.131000
     19 CAW         85.4710    66.7220   116.1520 ca         1 F2E      -0.087000
     20 CAX         85.7050    66.6760   114.7690 ca         1 F2E      -0.117000
     21 CAY         84.7480    66.1040   113.9160 ca         1 F2E      -0.076000
     22 CAZ         83.5540    65.5810   114.4440 ca         1 F2E      -0.016900
     23 CBB         81.9280    63.6490   116.5810 c5         1 F2E       0.152800
     24 CBC         82.4600    63.5280   118.0390 c5         1 F2E      -0.125400
     25 CBD         81.7700    64.7290   118.7410 c5         1 F2E       0.081000
     26 CBG         75.1300    71.8270   115.6430 ca         1 F2E      -0.059000
     27 CBH         74.1820    72.6330   116.2980 ca         1 F2E      -0.175000
     28 NAG         77.1190    69.2160   115.8470 ns         1 F2E      -0.515900
     29 NAS         81.6030    65.6570   117.6040 n          1 F2E      -0.296200
     30 NAT         82.0820    65.1050   116.3510 nh         1 F2E      -0.481400
     31 OAQ         84.1760    71.6240   118.4550 oh         1 F2E      -0.675000
     32 OBF         78.3390    67.9860   114.3700 o          1 F2E      -0.652100
     33 Br          82.2730    64.8270   113.2230 br         1 F2E      -0.091100
     34 H1          78.8630    68.7130   117.3930 hn         1 F2E       0.317500
     35 H2          80.2820    66.8120   115.5990 h1         1 F2E       0.117700
     36 H3          82.5160    68.0450   116.2970 h1         1 F2E       0.053700
     37 H4          82.5550    69.3350   114.2320 hc         1 F2E       0.048700
     38 H5          81.7090    67.8080   113.9250 hc         1 F2E       0.048700
     39 H6          80.7820    69.3110   114.1160 hc         1 F2E       0.048700
     40 H7          72.1240    70.1880   117.4980 ha         1 F2E       0.112500
     41 H8          73.7930    68.7570   116.3470 ha         1 F2E       0.117500
     42 H9          76.4220    70.0790   114.0730 h1         1 F2E       0.065200
     43 H10         75.5470    68.6250   114.5990 h1         1 F2E       0.065200
     44 H11         80.8340    69.4280   118.5680 h1         1 F2E       0.034700
     45 H12         82.5950    69.3740   118.3110 h1         1 F2E       0.034700
     46 H13         81.7500    71.4550   119.5090 hc         1 F2E       0.057200
     47 H14         80.8330    71.8780   118.0710 hc         1 F2E       0.057200
     48 H15         82.8630    73.1900   118.0570 h1         1 F2E       0.027200
     49 H16         83.0090    71.9920   116.7580 h1         1 F2E       0.027200
     50 H17         84.1180    66.2420   117.7540 ha         1 F2E       0.129000
     51 H18         86.2130    67.1610   116.8150 ha         1 F2E       0.121000
     52 H19         86.6280    67.0800   114.3590 ha         1 F2E       0.122000
     53 H20         84.9300    66.0680   112.8450 ha         1 F2E       0.132000
     54 H21         80.8760    63.3420   116.4970 h1         1 F2E       0.081700
     55 H22         82.5140    63.0470   115.8730 h1         1 F2E       0.081700
     56 H23         82.2100    62.5680   118.5030 hc         1 F2E       0.062200
     57 H24         83.5510    63.6300   118.0670 hc         1 F2E       0.062200
     58 H25         82.3850    65.1580   119.5440 h1         1 F2E       0.065200
     59 H26         80.7950    64.4420   119.1580 h1         1 F2E       0.065200
     60 H27         75.9690    72.2930   115.1290 ha         1 F2E       0.117500
     61 H28         74.2940    73.7130   116.2840 ha         1 F2E       0.112500
     62 H29         71.4720    72.4040   118.2010 hn         1 F2E       0.443500
     63 H30         72.3470    73.8300   117.7110 hn         1 F2E       0.443500
     64 H31         77.0870    69.5690   116.7930 hn         1 F2E       0.306500
     65 H32         84.9220    72.1270   118.0580 ho         1 F2E       0.440000
     66 NAA         72.1770    72.8310   117.6030 nv         1 F2E      -1.070000
@<TRIPOS>BOND
     1     1     2 1   
     2     1    13 1   
     3     1    34 1   
     4     2     3 1   
     5     2     5 1   
     6     2    35 1   
     7     3     4 2   
     8     3    29 1   
     9     5     6 1   
    10     5     7 1   
    11     5    36 1   
    12     6    14 1   
    13     7    37 1   
    14     7    38 1   
    15     7    39 1   
    16     8     9 ar  
    17     8    27 ar  
    18     8    66 1   
    19     9    10 ar  
    20     9    40 1   
    21    10    11 ar  
    22    10    41 1   
    23    11    12 1   
    24    11    26 ar  
    25    12    28 1   
    26    12    42 1   
    27    12    43 1   
    28    13    28 1   
    29    13    32 2   
    30    14    15 1   
    31    14    44 1   
    32    14    45 1   
    33    15    16 1   
    34    15    46 1   
    35    15    47 1   
    36    16    31 1   
    37    16    48 1   
    38    16    49 1   
    39    17    18 ar  
    40    17    22 ar  
    41    17    30 1   
    42    18    19 ar  
    43    18    50 1   
    44    19    20 ar  
    45    19    51 1   
    46    20    21 ar  
    47    20    52 1   
    48    21    22 ar  
    49    21    53 1   
    50    22    33 1   
    51    23    24 1   
    52    23    30 1   
    53    23    54 1   
    54    23    55 1   
    55    24    25 1   
    56    24    56 1   
    57    24    57 1   
    58    25    29 1   
    59    25    58 1   
    60    25    59 1   
    61    26    27 ar  
    62    26    60 1   
    63    27    61 1   
    64    28    64 1   
    65    29    30 1   
    66    31    65 1   
    67    62    66 1   
    68    63    66 1   
@<TRIPOS>SUBSTRUCTURE
     1 F2E         1 TEMP              0 ****  ****    0 ROOT
