@<TRIPOS>MOLECULE
F2E
   66    68     1     0     0
SMALL
abcg2


@<TRIPOS>ATOM
      1 N           79.6320    69.2350   115.1740 ns         1 F2E      -0.481900
      2 CA          80.6080    68.2450   115.5520 c3         1 F2E       0.033700
      3 C           80.2320    67.5900   116.8900 c          1 F2E       0.599100
      4 O           79.5140    68.1470   117.7170 o          1 F2E      -0.603100
      5 CB          82.0060    68.8980   115.5860 c3         1 F2E       0.173300
      6 OG1         81.9820    70.0500   116.4290 os         1 F2E      -0.486000
      7 CG2         82.4710    69.3120   114.2010 c3         1 F2E      -0.091100
      8 CAB         73.6100    70.7930   117.8370 ca         1 F2E       0.283000
      9 CAC         74.7580    70.0050   118.0120 ca         1 F2E      -0.175000
     10 CAD         75.5400    69.6450   116.9250 ca         1 F2E      -0.059000
     11 CAE         75.2160    70.0540   115.6300 ca         1 F2E      -0.164300
     12 CAF         76.0590    69.6470   114.4440 c3         1 F2E       0.165300
     13 CAH         78.3670    68.8440   114.8190 c          1 F2E       0.641100
     14 CAN         82.5590    69.8560   117.7220 c3         1 F2E       0.164600
     15 CAO         82.4590    71.1520   118.5020 c3         1 F2E      -0.074400
     16 CAP         83.2180    72.3120   117.8850 c3         1 F2E       0.162600
     17 CAU         82.8280    65.6500   116.2130 ca         1 F2E       0.231000
     18 CAV         83.5050    65.9860   117.3860 ca         1 F2E      -0.131000
     19 CAW         84.8920    66.0400   117.4210 ca         1 F2E      -0.087000
     20 CAX         85.6330    65.7500   116.2810 ca         1 F2E      -0.117000
     21 CAY         84.9780    65.4190   115.1000 ca         1 F2E      -0.076000
     22 CAZ         83.5910    65.3840   115.0720 ca         1 F2E      -0.016900
     23 CBB         80.7740    64.2990   116.1850 c5         1 F2E       0.152800
     24 CBC         80.5440    64.0770   117.6840 c5         1 F2E      -0.125400
     25 CBD         80.2260    65.4850   118.2030 c5         1 F2E       0.081000
     26 CBG         74.0790    70.8410   115.4620 ca         1 F2E      -0.059000
     27 CBH         73.2830    71.2060   116.5410 ca         1 F2E      -0.175000
     28 NAG         77.4810    69.8620   114.6510 ns         1 F2E      -0.515900
     29 NAS         80.7510    66.3630   117.1370 n          1 F2E      -0.296200
     30 NAT         81.4060    65.6350   116.1190 nh         1 F2E      -0.481400
     31 OAQ         84.6180    72.0020   117.8910 oh         1 F2E      -0.675000
     32 OBF         78.0810    67.6560   114.6260 o          1 F2E      -0.652100
     33 BR          82.7260    65.0190   113.4030 br         1 F2E      -0.091100
     34 H1          79.7440    70.1380   115.6090 hn         1 F2E       0.317500
     35 H2          80.6310    67.4580   114.8020 h1         1 F2E       0.117700
     36 H3          82.7130    68.1740   115.9920 h1         1 F2E       0.053700
     37 H4          83.4740    69.7360   114.2630 hc         1 F2E       0.048700
     38 H5          82.4990    68.4440   113.5400 hc         1 F2E       0.048700
     39 H6          81.8010    70.0570   113.7720 hc         1 F2E       0.048700
     40 H7          75.0310    69.6800   119.0090 ha         1 F2E       0.112500
     41 H8          76.4250    69.0410   117.0900 ha         1 F2E       0.117500
     42 H9          75.7300    70.2000   113.5610 h1         1 F2E       0.065200
     43 H10         75.9380    68.5860   114.2260 h1         1 F2E       0.065200
     44 H11         82.0310    69.0610   118.2570 h1         1 F2E       0.034700
     45 H12         83.6030    69.5490   117.6070 h1         1 F2E       0.034700
     46 H13         82.8340    70.9720   119.5140 hc         1 F2E       0.057200
     47 H14         81.4060    71.4350   118.5950 hc         1 F2E       0.057200
     48 H15         83.0300    73.2210   118.4660 h1         1 F2E       0.027200
     49 H16         82.8740    72.4850   116.8620 h1         1 F2E       0.027200
     50 H17         82.9340    66.2270   118.2710 ha         1 F2E       0.129000
     51 H18         85.3910    66.3080   118.3430 ha         1 F2E       0.121000
     52 H19         86.7140    65.7910   116.3000 ha         1 F2E       0.122000
     53 H20         85.5390    65.2100   114.2000 ha         1 F2E       0.132000
     54 H21         79.8310    64.3420   115.6390 h1         1 F2E       0.081700
     55 H22         81.4200    63.5560   115.7270 h1         1 F2E       0.081700
     56 H23         79.7320    63.3790   117.8780 hc         1 F2E       0.062200
     57 H24         81.4510    63.6920   118.1500 hc         1 F2E       0.062200
     58 H25         80.7050    65.7030   119.1570 h1         1 F2E       0.065200
     59 H26         79.1560    65.6670   118.3030 h1         1 F2E       0.065200
     60 H27         73.8110    71.1830   114.4690 ha         1 F2E       0.117500
     61 H28         72.4060    71.8240   116.3850 ha         1 F2E       0.112500
     62 H29         73.2510    71.1040   119.8180 hn         1 F2E       0.443500
     63 H30         72.2170    71.9290   118.7950 hn         1 F2E       0.443500
     64 H31         77.7770    70.7960   114.8880 hn         1 F2E       0.306500
     65 H32         85.0850    72.7030   117.4210 ho         1 F2E       0.440000
     66 NAA         72.7910    71.1070   118.9190 nv         1 F2E      -1.070000
@<TRIPOS>BOND
     1     1     2 1   
     2     1    13 1   
     3     1    34 1   
     4     2     3 1   
     5     2     5 1   
     6     2    35 1   
     7     3     4 2   
     8     3    29 1   
     9     5     6 1   
    10     5     7 1   
    11     5    36 1   
    12     6    14 1   
    13     7    37 1   
    14     7    38 1   
    15     7    39 1   
    16     8     9 ar  
    17     8    27 ar  
    18     8    66 1   
    19     9    10 ar  
    20     9    40 1   
    21    10    11 ar  
    22    10    41 1   
    23    11    12 1   
    24    11    26 ar  
    25    12    28 1   
    26    12    42 1   
    27    12    43 1   
    28    13    28 1   
    29    13    32 2   
    30    14    15 1   
    31    14    44 1   
    32    14    45 1   
    33    15    16 1   
    34    15    46 1   
    35    15    47 1   
    36    16    31 1   
    37    16    48 1   
    38    16    49 1   
    39    17    18 ar  
    40    17    22 ar  
    41    17    30 1   
    42    18    19 ar  
    43    18    50 1   
    44    19    20 ar  
    45    19    51 1   
    46    20    21 ar  
    47    20    52 1   
    48    21    22 ar  
    49    21    53 1   
    50    22    33 1   
    51    23    24 1   
    52    23    30 1   
    53    23    54 1   
    54    23    55 1   
    55    24    25 1   
    56    24    56 1   
    57    24    57 1   
    58    25    29 1   
    59    25    58 1   
    60    25    59 1   
    61    26    27 ar  
    62    26    60 1   
    63    27    61 1   
    64    28    64 1   
    65    29    30 1   
    66    31    65 1   
    67    62    66 1   
    68    63    66 1   
@<TRIPOS>SUBSTRUCTURE
     1 F2E         1 TEMP              0 ****  ****    0 ROOT
