@<TRIPOS>MOLECULE
F2F
   22    22     1     0     0
SMALL
abcg2


@<TRIPOS>ATOM
      1 O           32.2450   -17.2550    -5.1130 o          1 F2F      -0.726000
      2 C           32.3370   -17.6660    -3.9410 c          1 F2F       0.723000
      3 CA          31.1160   -18.4470    -3.3820 c3         1 F2F       0.025500
      4 N           31.1430   -18.4880    -1.9290 n8         1 F2F      -1.008200
      5 CB          29.7850   -17.8600    -3.8680 c3         1 F2F      -0.021100
      6 CG          28.6170   -18.6950    -3.4280 ca         1 F2F      -0.028300
      7 CD2         28.2780   -19.8400    -4.1490 ca         1 F2F      -0.138000
      8 CE2         27.2600   -20.6600    -3.7120 ca         1 F2F       0.119000
      9 F2          26.9360   -21.7610    -4.4030 f          1 F2F      -0.181000
     10 CZ          26.5620   -20.3630    -2.5540 ca         1 F2F       0.096000
     11 F1          25.5970   -21.1960    -2.1420 f          1 F2F      -0.184000
     12 CE1         26.8670   -19.2260    -1.8370 ca         1 F2F      -0.137000
     13 CD1         27.8940   -18.3990    -2.2760 ca         1 F2F      -0.098000
     14 OXT         33.3240   -17.5600    -3.1870 o          1 F2F      -0.726000
     15 HA          31.1970   -19.4570    -3.8240 h1         1 F2F      -0.001300
     16 HN          30.6500   -19.3040    -1.5920 hn         1 F2F       0.387000
     17 HNA         32.1080   -18.5830    -1.6400 hn         1 F2F       0.387000
     18 HB          29.6810   -16.8430    -3.4820 hc         1 F2F       0.062700
     19 HBA         29.8030   -17.7970    -4.9560 hc         1 F2F       0.062700
     20 HD2         28.8110   -20.1010    -5.0550 ha         1 F2F       0.137000
     21 HE1         26.3120   -18.9920    -0.9380 ha         1 F2F       0.118000
     22 HD1         28.1350   -17.5110    -1.7070 ha         1 F2F       0.130000
@<TRIPOS>BOND
     1     1     2 1   
     2     2     3 1   
     3     2    14 1   
     4     3     4 1   
     5     3     5 1   
     6     3    15 1   
     7     4    16 1   
     8     4    17 1   
     9     5     6 1   
    10     5    18 1   
    11     5    19 1   
    12     6     7 ar  
    13     6    13 ar  
    14     7     8 ar  
    15     7    20 1   
    16     8     9 1   
    17     8    10 ar  
    18    10    11 1   
    19    10    12 ar  
    20    12    13 ar  
    21    12    21 1   
    22    13    22 1   
@<TRIPOS>SUBSTRUCTURE
     1 F2F         1 TEMP              0 ****  ****    0 ROOT
