@<TRIPOS>MOLECULE
F2F
   22    22     1     0     0
SMALL
No Charge or Current Charge


@<TRIPOS>ATOM
      1 O           32.2170   -16.3890    -4.3650 o          1 F2F      -0.726000
      2 C           32.3820   -17.5660    -4.0650 c          1 F2F       0.723000
      3 CA          31.1940   -18.3720    -3.3770 c3         1 F2F       0.025500
      4 N           31.2560   -18.5050    -1.8760 n8         1 F2F      -1.008200
      5 CB          29.7990   -17.8470    -3.8210 c3         1 F2F      -0.021100
      6 CG          28.6400   -18.7380    -3.3760 ca         1 F2F      -0.028300
      7 CD2         28.4430   -19.9970    -3.9820 ca         1 F2F      -0.138000
      8 CE2         27.3750   -20.8150    -3.5790 ca         1 F2F       0.119000
      9 F2          27.2000   -22.0200    -4.1690 f          1 F2F      -0.181000
     10 CZ          26.4940   -20.3830    -2.5700 ca         1 F2F       0.096000
     11 F1          25.4630   -21.1660    -2.1770 f          1 F2F      -0.184000
     12 CE1         26.6820   -19.1300    -1.9640 ca         1 F2F      -0.137000
     13 CD1         27.7520   -18.3090    -2.3680 ca         1 F2F      -0.098000
     14 OXT         33.4290   -18.1640    -4.2780 o          1 F2F      -0.726000
     15 HA          31.2730   -19.3980    -3.7620 h1         1 F2F      -0.001300
     16 HN          30.4930   -19.1170    -1.5630 hn         1 F2F       0.387000
     17 HNA         32.1070   -19.0220    -1.6210 hn         1 F2F       0.387000
     18 HB          29.6610   -16.8250    -3.4450 hc         1 F2F       0.062700
     19 HBA         29.7870   -17.7670    -4.9150 hc         1 F2F       0.062700
     20 HD2         29.1160   -20.3400    -4.7630 ha         1 F2F       0.137000
     21 HE1         26.0010   -18.7950    -1.1850 ha         1 F2F       0.118000
     22 HD1         27.8930   -17.3400    -1.8940 ha         1 F2F       0.130000
@<TRIPOS>BOND
     1     1     2 1   
     2     2     3 1   
     3     2    14 1   
     4     3     4 1   
     5     3     5 1   
     6     3    15 1   
     7     4    16 1   
     8     4    17 1   
     9     5     6 1   
    10     5    18 1   
    11     5    19 1   
    12     6     7 ar  
    13     6    13 ar  
    14     7     8 ar  
    15     7    20 1   
    16     8     9 1   
    17     8    10 ar  
    18    10    11 1   
    19    10    12 ar  
    20    12    13 ar  
    21    12    21 1   
    22    13    22 1   
@<TRIPOS>SUBSTRUCTURE
     1 F2F         1 TEMP              0 ****  ****    0 ROOT
