@<TRIPOS>MOLECULE
F2G
   76    76     1     0     0
SMALL
No Charge or Current Charge


@<TRIPOS>ATOM
      1 O22          2.9290     2.0760     1.2250 oh         1 F2G      -0.716000
      2 C21          3.2560     1.6000    -0.0370 c3         1 F2G       0.646500
      3 O23          4.6560     1.3330    -0.1320 os         1 F2G      -0.444000
      4 C24          5.2250     0.4050     0.8170 c3         1 F2G       0.172600
      5 C25          6.7480     0.2530     0.5340 c6         1 F2G      -0.069700
      6 C26          7.4350    -0.6040     1.6350 c6         1 F2G      -0.069900
      7 C27          8.9540    -0.7590     1.3720 c6         1 F2G      -0.072900
      8 C28          9.2220    -1.3550    -0.0300 c6         1 F2G      -0.074400
      9 C29          8.5470    -0.5080    -1.1350 c6         1 F2G      -0.072900
     10 C30          7.0280    -0.3510    -0.8740 c6         1 F2G      -0.069900
     11 N1           2.5230     0.3840    -0.1810 n7         1 F2G      -0.981400
     12 C2           1.1060     0.4540    -0.6740 c3         1 F2G       0.198500
     13 C3           0.7550    -0.8990    -1.3830 c3         1 F2G      -0.045700
     14 C5           1.6570    -1.1720    -2.6140 c3         1 F2G      -0.086100
     15 C4           0.7380    -2.1220    -0.4270 c3         1 F2G      -0.086100
     16 C6           0.0340     0.8540     0.4320 c3         1 F2G       0.381500
     17 O7           0.2950     2.1250     0.9790 oh         1 F2G      -0.711000
     18 N8          -1.2920     1.0350    -0.1250 n7         1 F2G      -0.938400
     19 C9          -2.4940     0.6910     0.6950 c3         1 F2G       0.178500
     20 C10         -2.6140     1.6310     1.9250 c3         1 F2G      -0.127100
     21 C11         -3.7950     0.6670    -0.2080 c3         1 F2G       0.409500
     22 O12         -4.1330     1.9410    -0.6620 oh         1 F2G      -0.657000
     23 N13         -4.9960     0.2940     0.5310 n7         1 F2G      -0.942400
     24 C14         -6.1570    -0.1710    -0.2920 c3         1 F2G       0.157500
     25 C19         -7.3950     0.7620    -0.0560 c3         1 F2G       0.176300
     26 C31         -7.5020     1.9370    -1.0500 c3         1 F2G      -0.117100
     27 O20         -7.2550     1.2930     1.2600 oh         1 F2G      -0.660000
     28 C15         -6.4790    -1.6350     0.1070 c3         1 F2G      -0.135400
     29 C16         -5.3070    -2.6240    -0.0530 c3         1 F2G       0.380300
     30 O17         -4.4390    -2.5400     1.0530 oh         1 F2G      -0.687000
     31 O18         -5.7790    -3.9490    -0.0350 oh         1 F2G      -0.687000
     32 H22          1.9410     2.1410     1.1610 ho         1 F2G       0.477000
     33 H21          2.9350     2.3660    -0.7580 h3         1 F2G       0.064700
     34 H241         5.0960     0.7710     1.8440 h1         1 F2G       0.031200
     35 H242         4.7560    -0.5850     0.7420 h1         1 F2G       0.031200
     36 H25          7.1710     1.2670     0.5740 hc         1 F2G       0.057700
     37 H261         7.2800    -0.1440     2.6200 hc         1 F2G       0.040950
     38 H262         6.9680    -1.5980     1.6790 hc         1 F2G       0.040950
     39 H271         9.4460     0.2200     1.4590 hc         1 F2G       0.037450
     40 H272         9.4010    -1.4010     2.1430 hc         1 F2G       0.037450
     41 H281        10.3040    -1.4110    -0.2110 hc         1 F2G       0.036200
     42 H282         8.8450    -2.3870    -0.0720 hc         1 F2G       0.036200
     43 H291         9.0180     0.4840    -1.1800 hc         1 F2G       0.037450
     44 H292         8.7100    -0.9750    -2.1150 hc         1 F2G       0.037450
     45 H301         6.5370    -1.3300    -0.9630 hc         1 F2G       0.040950
     46 H302         6.5910     0.2860    -1.6540 hc         1 F2G       0.040950
     47 HN1          2.5710    -0.0920     0.7170 hn         1 F2G       0.442000
     48 H2           1.0480     1.2250    -1.4560 h1         1 F2G       0.046700
     49 H3          -0.2630    -0.7980    -1.7780 hc         1 F2G       0.059700
     50 H51          1.6440    -0.3180    -3.3000 hc         1 F2G       0.035367
     51 H52          2.6960    -1.3570    -2.3140 hc         1 F2G       0.035367
     52 H53          1.3020    -2.0520    -3.1640 hc         1 F2G       0.035367
     53 H41          1.7270    -2.2930     0.0160 hc         1 F2G       0.035367
     54 H42          0.0140    -1.9830     0.3840 hc         1 F2G       0.035367
     55 H43          0.4510    -3.0290    -0.9720 hc         1 F2G       0.035367
     56 H6           0.0370     0.0960     1.2290 h2         1 F2G       0.086700
     57 HO7         -0.5400     2.3560     1.4330 ho         1 F2G       0.440000
     58 HN8         -1.3770     1.9790    -0.5150 hn         1 F2G       0.445000
     59 H9          -2.3760    -0.3320     1.0810 h1         1 F2G       0.063700
     60 H101        -2.6510     2.6830     1.6190 hc         1 F2G       0.043700
     61 H102        -3.5260     1.4130     2.4930 hc         1 F2G       0.043700
     62 H103        -1.7730     1.4910     2.6130 hc         1 F2G       0.043700
     63 H11         -3.6210    -0.0030    -1.0620 h2         1 F2G       0.076700
     64 H12         -4.9820     2.0550    -0.1940 ho         1 F2G       0.445000
     65 H13         -4.6940    -0.5440     1.0540 hn         1 F2G       0.434000
     66 H14         -5.9150    -0.1680    -1.3650 h1         1 F2G       0.065700
     67 H19         -8.3160     0.1680    -0.1420 h1         1 F2G       0.067700
     68 H311        -7.5220     1.5660    -2.0820 hc         1 F2G       0.042367
     69 H312        -8.4280     2.4970    -0.8760 hc         1 F2G       0.042367
     70 H313        -6.6640     2.6340    -0.9490 hc         1 F2G       0.042367
     71 H20         -6.3020     1.0750     1.4350 ho         1 F2G       0.448000
     72 H151        -6.8590    -1.6700     1.1350 hc         1 F2G       0.071700
     73 H152        -7.3020    -1.9780    -0.5330 hc         1 F2G       0.071700
     74 H16         -4.7590    -2.4340    -0.9870 h2         1 F2G       0.061700
     75 H17         -4.9900    -2.7940     1.8230 ho         1 F2G       0.454000
     76 H18         -5.0690    -4.4870    -0.4450 ho         1 F2G       0.454000
@<TRIPOS>BOND
     1     1     2 1   
     2     1    32 1   
     3     2     3 1   
     4     2    11 1   
     5     2    33 1   
     6     3     4 1   
     7     4     5 1   
     8     4    34 1   
     9     4    35 1   
    10     5     6 1   
    11     5    10 1   
    12     5    36 1   
    13     6     7 1   
    14     6    37 1   
    15     6    38 1   
    16     7     8 1   
    17     7    39 1   
    18     7    40 1   
    19     8     9 1   
    20     8    41 1   
    21     8    42 1   
    22     9    10 1   
    23     9    43 1   
    24     9    44 1   
    25    10    45 1   
    26    10    46 1   
    27    11    12 1   
    28    11    47 1   
    29    12    13 1   
    30    12    16 1   
    31    12    48 1   
    32    13    14 1   
    33    13    15 1   
    34    13    49 1   
    35    14    50 1   
    36    14    51 1   
    37    14    52 1   
    38    15    53 1   
    39    15    54 1   
    40    15    55 1   
    41    16    17 1   
    42    16    18 1   
    43    16    56 1   
    44    17    57 1   
    45    18    19 1   
    46    18    58 1   
    47    19    20 1   
    48    19    21 1   
    49    19    59 1   
    50    20    60 1   
    51    20    61 1   
    52    20    62 1   
    53    21    22 1   
    54    21    23 1   
    55    21    63 1   
    56    22    64 1   
    57    23    24 1   
    58    23    65 1   
    59    24    25 1   
    60    24    28 1   
    61    24    66 1   
    62    25    26 1   
    63    25    27 1   
    64    25    67 1   
    65    26    68 1   
    66    26    69 1   
    67    26    70 1   
    68    27    71 1   
    69    28    29 1   
    70    28    72 1   
    71    28    73 1   
    72    29    30 1   
    73    29    31 1   
    74    29    74 1   
    75    30    75 1   
    76    31    76 1   
@<TRIPOS>SUBSTRUCTURE
     1 F2G         1 TEMP              0 ****  ****    0 ROOT
