@<TRIPOS>MOLECULE
F2G
   76    76     1     0     0
SMALL
abcg2


@<TRIPOS>ATOM
      1 O22          2.9670     2.2240     2.1600 oh         1 F2G      -0.716000
      2 C21          3.2170     1.8940     0.8210 c3         1 F2G       0.646500
      3 O23          4.5840     1.6650     0.7030 os         1 F2G      -0.444000
      4 C24          5.1180     0.5560     1.4000 c3         1 F2G       0.172600
      5 C25          6.3360     0.0260     0.6640 c6         1 F2G      -0.069700
      6 C26          6.9970    -1.0800     1.4890 c6         1 F2G      -0.069900
      7 C27          8.2210    -1.6580     0.7870 c6         1 F2G      -0.072900
      8 C28          7.8680    -2.1660    -0.6080 c6         1 F2G      -0.074400
      9 C29          7.2090    -1.0690    -1.4390 c6         1 F2G      -0.072900
     10 C30          5.9880    -0.4900    -0.7320 c6         1 F2G      -0.069900
     11 N1           2.4220     0.8090     0.3420 n7         1 F2G      -0.981400
     12 C2           1.1840     1.0700    -0.3630 c3         1 F2G       0.198500
     13 C3           0.9610     0.0210    -1.4690 c3         1 F2G      -0.045700
     14 C5           2.1080     0.0480    -2.4730 c3         1 F2G      -0.086100
     15 C4           0.7570    -1.3870    -0.9170 c3         1 F2G      -0.086100
     16 C6          -0.0170     1.1780     0.6020 c3         1 F2G       0.381500
     17 O7           0.2260     2.2030     1.5840 oh         1 F2G      -0.711000
     18 N8          -1.2340     1.3120    -0.1050 n7         1 F2G      -0.938400
     19 C9          -2.4900     1.1880     0.6080 c3         1 F2G       0.178500
     20 C10         -3.0120     2.5040     1.1850 c3         1 F2G      -0.127100
     21 C11         -3.5030     0.5170    -0.3330 c3         1 F2G       0.409500
     22 O12         -3.7560     1.2980    -1.4770 oh         1 F2G      -0.657000
     23 N13         -4.7310     0.2420     0.3690 n7         1 F2G      -0.942400
     24 C14         -5.6240    -0.7460    -0.2280 c3         1 F2G       0.157500
     25 C19         -7.0470    -0.1620    -0.2750 c3         1 F2G       0.176300
     26 C31         -7.1860     0.9490    -1.3040 c3         1 F2G      -0.117100
     27 O20         -7.4360     0.2800     1.0120 oh         1 F2G      -0.660000
     28 C15         -5.6230    -2.0980     0.4910 c3         1 F2G      -0.135400
     29 C16         -4.3130    -2.8700     0.4060 c3         1 F2G       0.380300
     30 O17         -3.2770    -2.3170     1.1690 oh         1 F2G      -0.687000
     31 O18         -4.5910    -4.1870     0.7950 oh         1 F2G      -0.687000
     32 H22          1.9990     2.2530     2.2460 ho         1 F2G       0.477000
     33 H21          3.0240     2.7470     0.1570 h3         1 F2G       0.064700
     34 H241         5.3990     0.8450     2.4210 h1         1 F2G       0.031200
     35 H242         4.3880    -0.2580     1.4850 h1         1 F2G       0.031200
     36 H25          7.0630     0.8440     0.5600 hc         1 F2G       0.057700
     37 H261         7.2720    -0.6970     2.4760 hc         1 F2G       0.040950
     38 H262         6.2680    -1.8830     1.6570 hc         1 F2G       0.040950
     39 H271         8.9900    -0.8820     0.7040 hc         1 F2G       0.037450
     40 H272         8.6530    -2.4620     1.3880 hc         1 F2G       0.037450
     41 H281         8.7620    -2.5400    -1.1130 hc         1 F2G       0.036200
     42 H282         7.1810    -3.0140    -0.5200 hc         1 F2G       0.036200
     43 H291         7.9360    -0.2680    -1.6160 hc         1 F2G       0.037450
     44 H292         6.9280    -1.4550    -2.4220 hc         1 F2G       0.037450
     45 H301         5.2170    -1.2650    -0.6390 hc         1 F2G       0.040950
     46 H302         5.5470     0.3090    -1.3320 hc         1 F2G       0.040950
     47 HN1          2.3200     0.0650     1.0200 hn         1 F2G       0.442000
     48 H2           1.2910     2.0410    -0.8670 h1         1 F2G       0.046700
     49 H3           0.0450     0.3050    -1.9910 hc         1 F2G       0.059700
     50 H51          2.2290     1.0420    -2.9110 hc         1 F2G       0.035367
     51 H52          3.0520    -0.2230    -1.9990 hc         1 F2G       0.035367
     52 H53          1.9210    -0.6510    -3.2890 hc         1 F2G       0.035367
     53 H41          1.6410    -1.7420    -0.3820 hc         1 F2G       0.035367
     54 H42         -0.0980    -1.4440    -0.2410 hc         1 F2G       0.035367
     55 H43          0.5720    -2.0910    -1.7300 hc         1 F2G       0.035367
     56 H6          -0.0680     0.2630     1.2010 h2         1 F2G       0.086700
     57 HO7          0.1440     3.0600     1.1490 ho         1 F2G       0.440000
     58 HN8         -1.2350     2.0690    -0.7770 hn         1 F2G       0.445000
     59 H9          -2.3190     0.4800     1.4250 h1         1 F2G       0.063700
     60 H101        -3.1120     3.2660     0.4080 hc         1 F2G       0.043700
     61 H102        -3.9890     2.3800     1.6530 hc         1 F2G       0.043700
     62 H103        -2.3270     2.8930     1.9360 hc         1 F2G       0.043700
     63 H11         -3.0220    -0.3910    -0.7180 h2         1 F2G       0.076700
     64 H12         -4.3010     2.0440    -1.2010 ho         1 F2G       0.445000
     65 H13         -4.5330     0.0070     1.3330 hn         1 F2G       0.434000
     66 H14         -5.3100    -0.9180    -1.2640 h1         1 F2G       0.065700
     67 H19         -7.7420    -0.9650    -0.5390 h1         1 F2G       0.067700
     68 H311        -6.9240     0.5950    -2.3020 hc         1 F2G       0.042367
     69 H312        -8.2120     1.3180    -1.3370 hc         1 F2G       0.042367
     70 H313        -6.5360     1.7930    -1.0650 hc         1 F2G       0.042367
     71 H20         -6.7680     0.9250     1.2800 ho         1 F2G       0.448000
     72 H151        -5.9140    -1.9690     1.5400 hc         1 F2G       0.071700
     73 H152        -6.3990    -2.7140     0.0290 hc         1 F2G       0.071700
     74 H16         -3.9390    -2.8400    -0.6260 h2         1 F2G       0.061700
     75 H17         -3.5730    -2.2420     2.0840 ho         1 F2G       0.454000
     76 H18         -3.8130    -4.7290     0.6280 ho         1 F2G       0.454000
@<TRIPOS>BOND
     1     1     2 1   
     2     1    32 1   
     3     2     3 1   
     4     2    11 1   
     5     2    33 1   
     6     3     4 1   
     7     4     5 1   
     8     4    34 1   
     9     4    35 1   
    10     5     6 1   
    11     5    10 1   
    12     5    36 1   
    13     6     7 1   
    14     6    37 1   
    15     6    38 1   
    16     7     8 1   
    17     7    39 1   
    18     7    40 1   
    19     8     9 1   
    20     8    41 1   
    21     8    42 1   
    22     9    10 1   
    23     9    43 1   
    24     9    44 1   
    25    10    45 1   
    26    10    46 1   
    27    11    12 1   
    28    11    47 1   
    29    12    13 1   
    30    12    16 1   
    31    12    48 1   
    32    13    14 1   
    33    13    15 1   
    34    13    49 1   
    35    14    50 1   
    36    14    51 1   
    37    14    52 1   
    38    15    53 1   
    39    15    54 1   
    40    15    55 1   
    41    16    17 1   
    42    16    18 1   
    43    16    56 1   
    44    17    57 1   
    45    18    19 1   
    46    18    58 1   
    47    19    20 1   
    48    19    21 1   
    49    19    59 1   
    50    20    60 1   
    51    20    61 1   
    52    20    62 1   
    53    21    22 1   
    54    21    23 1   
    55    21    63 1   
    56    22    64 1   
    57    23    24 1   
    58    23    65 1   
    59    24    25 1   
    60    24    28 1   
    61    24    66 1   
    62    25    26 1   
    63    25    27 1   
    64    25    67 1   
    65    26    68 1   
    66    26    69 1   
    67    26    70 1   
    68    27    71 1   
    69    28    29 1   
    70    28    72 1   
    71    28    73 1   
    72    29    30 1   
    73    29    31 1   
    74    29    74 1   
    75    30    75 1   
    76    31    76 1   
@<TRIPOS>SUBSTRUCTURE
     1 F2G         1 TEMP              0 ****  ****    0 ROOT
