@<TRIPOS>MOLECULE
F2H
   80    85     1     0     0
SMALL
No Charge or Current Charge


@<TRIPOS>ATOM
      1 OAN         -7.1190    -0.1320     2.5370 o          1 F2H      -0.699367
      2 SCE         -8.2200    -1.1000     2.6390 s6         1 F2H       1.257100
      3 OAH         -8.0610    -2.3310     1.8540 o          1 F2H      -0.699367
      4 OAI         -8.7720    -1.2830     3.9900 o          1 F2H      -0.699367
      5 CBW         -9.5980    -0.2290     1.6930 ca         1 F2H      -0.214500
      6 CCA         -9.5490     0.2130     0.3080 ca         1 F2H       0.020500
      7 CAX        -10.7760     0.0090     2.4430 ca         1 F2H      -0.064000
      8 CAR        -11.8720     0.6640     1.8980 ca         1 F2H      -0.156000
      9 CBD        -11.8330     1.1120     0.5840 ca         1 F2H      -0.061500
     10 CBY        -10.6950     0.9080    -0.2320 ca         1 F2H       0.027000
     11 CBU        -10.7080     1.3960    -1.5790 ca         1 F2H      -0.226500
     12 SCC        -12.1570     2.3140    -2.3420 s6         1 F2H       1.270100
     13 OAL        -11.6940     2.6120    -3.7070 o          1 F2H      -0.709367
     14 OAE        -13.2330     1.3160    -2.2420 o          1 F2H      -0.709367
     15 OAD        -12.2840     3.4760    -1.4490 o          1 F2H      -0.709367
     16 CBB         -9.5820     1.1790    -2.3870 ca         1 F2H      -0.039000
     17 CAZ         -8.4740     0.5030    -1.8940 ca         1 F2H      -0.135500
     18 CBS         -8.4260     0.0230    -0.5760 ca         1 F2H      -0.010500
     19 NBJ         -7.2470    -0.6900    -0.2420 ns         1 F2H      -0.172000
     20 CBM         -5.9180    -0.4130    -0.5320 c          1 F2H       0.634200
     21 OAB         -5.5690     0.6400    -1.0620 o          1 F2H      -0.606600
     22 CBQ         -4.9050    -1.4890    -0.1780 ca         1 F2H      -0.094600
     23 CBF         -3.5250    -1.1730    -0.1750 ca         1 F2H      -0.090000
     24 CAV         -5.2970    -2.8140     0.1240 ca         1 F2H      -0.079000
     25 CAP         -4.3340    -3.7850     0.4390 ca         1 F2H      -0.115500
     26 CAT         -2.9720    -3.4530     0.4510 ca         1 F2H      -0.138000
     27 CBO         -2.5520    -2.1490     0.1410 ca         1 F2H      -0.041000
     28 NBH         -1.1520    -1.8920     0.1690 ns         1 F2H      -0.167500
     29 CBL         -0.3990    -0.7530    -0.0890 c          1 F2H       0.658100
     30 OAA         -0.8730     0.3280    -0.4170 o          1 F2H      -0.601100
     31 NBI          0.9580    -1.0000     0.0770 ns         1 F2H      -0.167500
     32 CBP          2.1120    -0.1790    -0.0760 ca         1 F2H      -0.041000
     33 CBG          3.3610    -0.7480     0.2410 ca         1 F2H      -0.090000
     34 CAU          2.0650     1.1560    -0.5270 ca         1 F2H      -0.138000
     35 CAQ          3.2470     1.9020    -0.6470 ca         1 F2H      -0.115500
     36 CAW          4.4880     1.3280    -0.3270 ca         1 F2H      -0.079000
     37 CBR          4.5640    -0.0130     0.1140 ca         1 F2H      -0.094600
     38 CBN          5.8830    -0.6700     0.4790 c          1 F2H       0.634200
     39 OAC          5.9150    -1.7230     1.1120 o          1 F2H      -0.606600
     40 NBK          7.0390    -0.0140     0.0750 ns         1 F2H      -0.172000
     41 CBT          8.3970    -0.2810     0.3800 ca         1 F2H      -0.010500
     42 CCB          9.4840    -0.1910    -0.5620 ca         1 F2H       0.020500
     43 CBX          9.3320     0.1050    -1.9780 ca         1 F2H      -0.214500
     44 SCF          7.7090     0.3920    -2.8920 s6         1 F2H       1.257100
     45 OAO          8.1150     0.6050    -4.2890 o          1 F2H      -0.699367
     46 OAK          6.9850    -0.8610    -2.6330 o          1 F2H      -0.699367
     47 OAJ          7.1920     1.5810    -2.2010 o          1 F2H      -0.699367
     48 CAY         10.4920     0.1800    -2.7870 ca         1 F2H      -0.064000
     49 CAS         11.7620    -0.0340    -2.2700 ca         1 F2H      -0.156000
     50 CBE         11.9230    -0.3400    -0.9250 ca         1 F2H      -0.061500
     51 CBZ         10.8150    -0.4290    -0.0500 ca         1 F2H       0.027000
     52 CBV         11.0400    -0.7520     1.3280 ca         1 F2H      -0.226500
     53 SCD         12.7370    -1.0820     2.0590 s6         1 F2H       1.270100
     54 OAM         13.1960    -2.2250     1.2540 o          1 F2H      -0.709367
     55 OAG         13.4280     0.1910     1.8030 o          1 F2H      -0.709367
     56 OAF         12.4510    -1.3750     3.4720 o          1 F2H      -0.709367
     57 CBC          9.9370    -0.8250     2.1930 ca         1 F2H      -0.039000
     58 CBA          8.6510    -0.5870     1.7270 ca         1 F2H      -0.135500
     59 H1         -10.8650    -0.3100     3.4770 ha         1 F2H       0.123000
     60 H2         -12.7600     0.8320     2.5020 ha         1 F2H       0.081000
     61 H3         -12.7200     1.6200     0.2280 ha         1 F2H       0.128500
     62 H4          -9.5510     1.5230    -3.4180 ha         1 F2H       0.128000
     63 H5          -7.6410     0.3340    -2.5720 ha         1 F2H       0.104000
     64 H6          -7.4010    -1.5360     0.2930 hn         1 F2H       0.202000
     65 H7          -3.2280    -0.1570    -0.4150 ha         1 F2H       0.144000
     66 H8          -6.3410    -3.1140     0.1010 ha         1 F2H       0.144000
     67 H9          -4.6460    -4.8020     0.6700 ha         1 F2H       0.100000
     68 H10         -2.2390    -4.2190     0.6960 ha         1 F2H       0.108000
     69 H11         -0.6000    -2.6990     0.4270 hn         1 F2H       0.140000
     70 H12          1.1710    -1.9470     0.3590 hn         1 F2H       0.140000
     71 H13          3.3980    -1.7790     0.5870 ha         1 F2H       0.144000
     72 H14          1.1280     1.6360    -0.7880 ha         1 F2H       0.108000
     73 H15          3.2020     2.9350    -0.9860 ha         1 F2H       0.100000
     74 H16          5.3780     1.9470    -0.4100 ha         1 F2H       0.144000
     75 H17          6.8900     0.7800    -0.5350 hn         1 F2H       0.202000
     76 H18         10.4300     0.4060    -3.8480 ha         1 F2H       0.123000
     77 H19         12.6310     0.0300    -2.9200 ha         1 F2H       0.081000
     78 H20         12.9400    -0.5020    -0.5920 ha         1 F2H       0.128500
     79 H21         10.0610    -1.0570     3.2480 ha         1 F2H       0.128000
     80 H22          7.8370    -0.6250     2.4460 ha         1 F2H       0.104000
@<TRIPOS>BOND
     1     1     2 1   
     2     2     3 1   
     3     2     4 1   
     4     2     5 1   
     5     5     6 ar  
     6     5     7 ar  
     7     6    10 ar  
     8     6    18 ar  
     9     7     8 ar  
    10     7    59 1   
    11     8     9 ar  
    12     8    60 1   
    13     9    10 ar  
    14     9    61 1   
    15    10    11 ar  
    16    11    12 1   
    17    11    16 ar  
    18    12    13 1   
    19    12    14 1   
    20    12    15 1   
    21    16    17 ar  
    22    16    62 1   
    23    17    18 ar  
    24    17    63 1   
    25    18    19 1   
    26    19    20 1   
    27    19    64 1   
    28    20    21 2   
    29    20    22 1   
    30    22    23 ar  
    31    22    24 ar  
    32    23    27 ar  
    33    23    65 1   
    34    24    25 ar  
    35    24    66 1   
    36    25    26 ar  
    37    25    67 1   
    38    26    27 ar  
    39    26    68 1   
    40    27    28 1   
    41    28    29 1   
    42    28    69 1   
    43    29    30 2   
    44    29    31 1   
    45    31    32 1   
    46    31    70 1   
    47    32    33 ar  
    48    32    34 ar  
    49    33    37 ar  
    50    33    71 1   
    51    34    35 ar  
    52    34    72 1   
    53    35    36 ar  
    54    35    73 1   
    55    36    37 ar  
    56    36    74 1   
    57    37    38 1   
    58    38    39 2   
    59    38    40 1   
    60    40    41 1   
    61    40    75 1   
    62    41    42 ar  
    63    41    58 ar  
    64    42    43 ar  
    65    42    51 ar  
    66    43    44 1   
    67    43    48 ar  
    68    44    45 1   
    69    44    46 1   
    70    44    47 1   
    71    48    49 ar  
    72    48    76 1   
    73    49    50 ar  
    74    49    77 1   
    75    50    51 ar  
    76    50    78 1   
    77    51    52 ar  
    78    52    53 1   
    79    52    57 ar  
    80    53    54 1   
    81    53    55 1   
    82    53    56 1   
    83    57    58 ar  
    84    57    79 1   
    85    58    80 1   
@<TRIPOS>SUBSTRUCTURE
     1 F2H         1 TEMP              0 ****  ****    0 ROOT
