@<TRIPOS>MOLECULE
F2H
   80    85     1     0     0
SMALL
abcg2


@<TRIPOS>ATOM
      1 OAN         -7.3600    -2.3230     2.1150 o          1 F2H      -0.699367
      2 SCE         -8.6670    -2.5060     1.4710 s6         1 F2H       1.257100
      3 OAH         -8.6060    -3.0010     0.0720 o          1 F2H      -0.699367
      4 OAI         -9.5970    -3.3040     2.2830 o          1 F2H      -0.699367
      5 CBW         -9.4070    -0.8600     1.3380 ca         1 F2H      -0.214500
      6 CCA         -8.8990     0.2240     0.5400 ca         1 F2H       0.020500
      7 CAX        -10.5560    -0.7080     2.0680 ca         1 F2H      -0.064000
      8 CAR        -11.2770     0.4920     2.0590 ca         1 F2H      -0.156000
      9 CBD        -10.8400     1.5400     1.3100 ca         1 F2H      -0.061500
     10 CBY         -9.6550     1.4480     0.5380 ca         1 F2H       0.027000
     11 CBU         -9.2120     2.5670    -0.2250 ca         1 F2H      -0.226500
     12 SCC        -10.1100     4.1320    -0.2640 s6         1 F2H       1.270100
     13 OAL         -9.3300     5.0010    -1.1590 o          1 F2H      -0.709367
     14 OAE        -11.4450     3.8040    -0.7930 o          1 F2H      -0.709367
     15 OAD        -10.1300     4.6090     1.1300 o          1 F2H      -0.709367
     16 CBB         -8.0700     2.4830    -0.9690 ca         1 F2H      -0.039000
     17 CAZ         -7.3340     1.2980    -0.9830 ca         1 F2H      -0.135500
     18 CBS         -7.7060     0.1980    -0.2540 ca         1 F2H      -0.010500
     19 NBJ         -6.8470    -0.9140    -0.3490 ns         1 F2H      -0.172000
     20 CBM         -5.5700    -0.8660     0.0990 c          1 F2H       0.634200
     21 OAB         -5.0880     0.1330     0.6080 o          1 F2H      -0.606600
     22 CBQ         -4.7280    -2.0850    -0.1340 ca         1 F2H      -0.094600
     23 CBF         -3.3500    -1.8830    -0.1440 ca         1 F2H      -0.090000
     24 CAV         -5.2440    -3.3650    -0.3200 ca         1 F2H      -0.079000
     25 CAP         -4.3740    -4.4260    -0.5220 ca         1 F2H      -0.115500
     26 CAT         -3.0060    -4.2220    -0.5660 ca         1 F2H      -0.138000
     27 CBO         -2.4810    -2.9430    -0.3820 ca         1 F2H      -0.041000
     28 NBH         -1.0910    -2.7970    -0.3970 ns         1 F2H      -0.167500
     29 CBL         -0.4050    -1.7040    -0.8570 c          1 F2H       0.658100
     30 OAA         -0.9420    -0.6970    -1.2780 o          1 F2H      -0.601100
     31 NBI          0.9540    -1.8700    -0.7920 ns         1 F2H      -0.167500
     32 CBP          1.9100    -0.9000    -1.1090 ca         1 F2H      -0.041000
     33 CBG          3.0990    -0.9030    -0.3860 ca         1 F2H      -0.090000
     34 CAU          1.7380     0.0360    -2.1310 ca         1 F2H      -0.138000
     35 CAQ          2.7390     0.9600    -2.3860 ca         1 F2H      -0.115500
     36 CAW          3.9230     0.9560    -1.6650 ca         1 F2H      -0.079000
     37 CBR          4.1120     0.0060    -0.6660 ca         1 F2H      -0.094600
     38 CBN          5.3420    -0.0420     0.1820 c          1 F2H       0.634200
     39 OAC          5.3290    -0.5660     1.2830 o          1 F2H      -0.606600
     40 NBK          6.4340     0.5560    -0.3560 ns         1 F2H      -0.172000
     41 CBT          7.6680     0.6170     0.3030 ca         1 F2H      -0.010500
     42 CCB          8.8750     0.0870    -0.2610 ca         1 F2H       0.020500
     43 CBX          8.9760    -0.6380    -1.5000 ca         1 F2H      -0.214500
     44 SCF          7.5860    -1.1470    -2.5480 s6         1 F2H       1.257100
     45 OAO          8.1800    -1.8550    -3.6890 o          1 F2H      -0.699367
     46 OAK          6.7380    -2.0000    -1.7070 o          1 F2H      -0.699367
     47 OAJ          6.9400     0.1230    -2.9740 o          1 F2H      -0.699367
     48 CAY         10.1970    -1.0480    -1.9660 ca         1 F2H      -0.064000
     49 CAS         11.3780    -0.7770    -1.2630 ca         1 F2H      -0.156000
     50 CBE         11.3260    -0.1240    -0.0710 ca         1 F2H      -0.061500
     51 CBZ         10.0910     0.3150     0.4720 ca         1 F2H       0.027000
     52 CBV         10.0550     0.9670     1.7380 ca         1 F2H      -0.226500
     53 SCD         11.5400     1.2550     2.7200 s6         1 F2H       1.270100
     54 OAM         12.1060    -0.0800     2.9830 o          1 F2H      -0.709367
     55 OAG         12.4040     2.1060     1.8840 o          1 F2H      -0.709367
     56 OAF         11.0710     1.9310     3.9410 o          1 F2H      -0.709367
     57 CBC          8.8690     1.4080     2.2490 ca         1 F2H      -0.039000
     58 CBA          7.6900     1.2500     1.5200 ca         1 F2H      -0.135500
     59 H1         -10.9250    -1.5300     2.6630 ha         1 F2H       0.123000
     60 H2         -12.1810     0.5770     2.6450 ha         1 F2H       0.081000
     61 H3         -11.4180     2.4500     1.3140 ha         1 F2H       0.128500
     62 H4          -7.7310     3.3190    -1.5610 ha         1 F2H       0.128000
     63 H5          -6.4470     1.2400    -1.5990 ha         1 F2H       0.104000
     64 H6          -7.2710    -1.8040    -0.5870 hn         1 F2H       0.202000
     65 H7          -2.9660    -0.8920     0.0390 ha         1 F2H       0.144000
     66 H8          -6.3060    -3.5610    -0.2800 ha         1 F2H       0.144000
     67 H9          -4.7670    -5.4250    -0.6550 ha         1 F2H       0.100000
     68 H10         -2.3400    -5.0590    -0.7430 ha         1 F2H       0.108000
     69 H11         -0.5670    -3.6420    -0.2260 hn         1 F2H       0.140000
     70 H12          1.3030    -2.6590    -0.2680 hn         1 F2H       0.140000
     71 H13          3.2360    -1.6230     0.4120 ha         1 F2H       0.144000
     72 H14          0.8390     0.0480    -2.7270 ha         1 F2H       0.108000
     73 H15          2.5920     1.6930    -3.1680 ha         1 F2H       0.100000
     74 H16          4.6710     1.7080    -1.8740 ha         1 F2H       0.144000
     75 H17          6.4500     0.6810    -1.3700 hn         1 F2H       0.202000
     76 H18         10.2610    -1.5940    -2.8950 ha         1 F2H       0.123000
     77 H19         12.3280    -1.0980    -1.6680 ha         1 F2H       0.081000
     78 H20         12.2480     0.0620     0.4530 ha         1 F2H       0.128500
     79 H21          8.8320     1.9090     3.2050 ha         1 F2H       0.128000
     80 H22          6.7730     1.6660     1.9140 ha         1 F2H       0.104000
@<TRIPOS>BOND
     1     1     2 1   
     2     2     3 1   
     3     2     4 1   
     4     2     5 1   
     5     5     6 ar  
     6     5     7 ar  
     7     6    10 ar  
     8     6    18 ar  
     9     7     8 ar  
    10     7    59 1   
    11     8     9 ar  
    12     8    60 1   
    13     9    10 ar  
    14     9    61 1   
    15    10    11 ar  
    16    11    12 1   
    17    11    16 ar  
    18    12    13 1   
    19    12    14 1   
    20    12    15 1   
    21    16    17 ar  
    22    16    62 1   
    23    17    18 ar  
    24    17    63 1   
    25    18    19 1   
    26    19    20 1   
    27    19    64 1   
    28    20    21 2   
    29    20    22 1   
    30    22    23 ar  
    31    22    24 ar  
    32    23    27 ar  
    33    23    65 1   
    34    24    25 ar  
    35    24    66 1   
    36    25    26 ar  
    37    25    67 1   
    38    26    27 ar  
    39    26    68 1   
    40    27    28 1   
    41    28    29 1   
    42    28    69 1   
    43    29    30 2   
    44    29    31 1   
    45    31    32 1   
    46    31    70 1   
    47    32    33 ar  
    48    32    34 ar  
    49    33    37 ar  
    50    33    71 1   
    51    34    35 ar  
    52    34    72 1   
    53    35    36 ar  
    54    35    73 1   
    55    36    37 ar  
    56    36    74 1   
    57    37    38 1   
    58    38    39 2   
    59    38    40 1   
    60    40    41 1   
    61    40    75 1   
    62    41    42 ar  
    63    41    58 ar  
    64    42    43 ar  
    65    42    51 ar  
    66    43    44 1   
    67    43    48 ar  
    68    44    45 1   
    69    44    46 1   
    70    44    47 1   
    71    48    49 ar  
    72    48    76 1   
    73    49    50 ar  
    74    49    77 1   
    75    50    51 ar  
    76    50    78 1   
    77    51    52 ar  
    78    52    53 1   
    79    52    57 ar  
    80    53    54 1   
    81    53    55 1   
    82    53    56 1   
    83    57    58 ar  
    84    57    79 1   
    85    58    80 1   
@<TRIPOS>SUBSTRUCTURE
     1 F2H         1 TEMP              0 ****  ****    0 ROOT
