@<TRIPOS>MOLECULE
F2I
   79    81     1     0     0
SMALL
No Charge or Current Charge


@<TRIPOS>ATOM
      1 N1           0.4930     1.9330     3.9280 ns         1 F2I      -0.501900
      2 C4          -0.5580     3.4110     2.2750 ca         1 F2I      -0.156600
      3 C5          -1.8550     2.9660     2.6220 ca         1 F2I      -0.071000
      4 C8           0.6880     2.7750     2.8530 c          1 F2I       0.626700
      5 C10         -3.9380     2.9970     4.9540 c3         1 F2I       0.099000
      6 C13         -3.4490     1.8660     5.8860 c3         1 F2I      -0.099400
      7 C15          1.5600     1.2930     4.7180 c3         1 F2I       0.076700
      8 C17          1.9140     2.1480     5.9650 c3         1 F2I      -0.048100
      9 C20         -1.9930    -3.4770     6.8780 ca         1 F2I      -0.091300
     10 C21         -1.4770    -4.3120     7.8900 ca         1 F2I      -0.073000
     11 C22         -1.7890    -5.6830     7.9080 ca         1 F2I      -0.116000
     12 C24         -3.1320    -5.4000     5.9010 ca         1 F2I       0.196000
     13 C26          4.0420     5.1460     4.8720 ca         1 F2I       0.205000
     14 C28          2.3370     3.5690     5.6120 ca         1 F2I      -0.023300
     15 C           -3.0080     3.6100     2.1180 ca         1 F2I      -0.145600
     16 C1          -2.8480     4.6730     1.2060 ca         1 F2I      -0.051000
     17 C2          -1.5660     5.1150     0.8330 ca         1 F2I      -0.086300
     18 C3          -0.4290     4.4860     1.3700 ca         1 F2I      -0.047000
     19 O           -5.3110     3.2370     1.6530 o          1 F2I      -0.589100
     20 N           -4.6280     2.5080     3.7270 n          1 F2I      -0.406800
     21 C9          -5.8790     1.7270     3.9320 c3         1 F2I       0.099000
     22 C11         -7.0260     2.5170     4.6020 c3         1 F2I      -0.099400
     23 C12         -8.3330     1.7080     4.6950 c3         1 F2I      -0.090100
     24 C14         -2.4930     2.3620     6.9880 c3         1 F2I      -0.090100
     25 O1           1.8030     2.9950     2.4000 o          1 F2I      -0.593100
     26 C16          1.2230    -0.1960     5.0580 c3         1 F2I       0.160300
     27 C18          0.0280    -0.3550     6.0480 c3         1 F2I       0.166800
     28 N2          -0.3590    -1.7720     6.2060 n7         1 F2I      -0.864400
     29 C19         -1.6570    -1.9940     6.8610 c3         1 F2I       0.206100
     30 C23         -2.6180    -6.2280     6.9120 ca         1 F2I      -0.077000
     31 C25         -2.8230    -4.0310     5.8820 ca         1 F2I      -0.079000
     32 I           -4.4090    -6.2380     4.3650 i          1 F2I      -0.317000
     33 C27          3.6630     3.8400     5.2230 ca         1 F2I      -0.166500
     34 C29          1.4020     4.6220     5.6480 ca         1 F2I      -0.166500
     35 C30          1.7900     5.9230     5.2920 ca         1 F2I       0.205000
     36 C31          3.1090     6.1910     4.9040 ca         1 F2I      -0.197000
     37 F1           0.8840     6.9250     5.3220 f          1 F2I      -0.171500
     38 O2           0.9360    -0.9240     3.8410 oh         1 F2I      -0.655000
     39 HN1         -0.4630     1.7990     4.2250 hn         1 F2I       0.312500
     40 H5          -1.9810     2.1010     3.2670 ha         1 F2I       0.122000
     41 H71         -2.2580     6.9610    -0.0900 hc         1 F2I       0.047367
     42 H72         -0.5010     6.8470     0.0590 hc         1 F2I       0.047367
     43 H73         -1.3460     5.9000    -1.1770 hc         1 F2I       0.047367
     44 H101        -4.6250     3.6430     5.5150 h1         1 F2I       0.053200
     45 H102        -3.0880     3.6350     4.6900 h1         1 F2I       0.053200
     46 H131        -4.3120     1.3790     6.3570 hc         1 F2I       0.047450
     47 H132        -2.9390     1.1010     5.2900 hc         1 F2I       0.047450
     48 H15          2.4660     1.2670     4.0960 h1         1 F2I       0.086700
     49 H171         1.0530     2.1860     6.6440 hc         1 F2I       0.058200
     50 H172         2.7180     1.6510     6.5230 hc         1 F2I       0.058200
     51 H21         -0.8310    -3.8950     8.6610 ha         1 F2I       0.132000
     52 H22         -1.3870    -6.3230     8.6920 ha         1 F2I       0.118000
     53 H1          -3.7250     5.1640     0.7880 ha         1 F2I       0.128000
     54 H3           0.5590     4.8400     1.0850 ha         1 F2I       0.133000
     55 H91         -5.6490     0.8460     4.5440 h1         1 F2I       0.053200
     56 H92         -6.2280     1.3440     2.9640 h1         1 F2I       0.053200
     57 H111        -6.7290     2.8190     5.6130 hc         1 F2I       0.047450
     58 H112        -7.2140     3.4350     4.0310 hc         1 F2I       0.047450
     59 H121        -8.1830     0.7960     5.2860 hc         1 F2I       0.034200
     60 H122        -9.1180     2.3030     5.1760 hc         1 F2I       0.034200
     61 H123        -8.6840     1.4200     3.6960 hc         1 F2I       0.034200
     62 H141        -2.9840     3.1130     7.6190 hc         1 F2I       0.034200
     63 H142        -2.1810     1.5280     7.6280 hc         1 F2I       0.034200
     64 H143        -1.5950     2.8120     6.5480 hc         1 F2I       0.034200
     65 H16          2.1070    -0.6350     5.5400 h1         1 F2I       0.048700
     66 H181        -0.8200     0.2200     5.6550 h1         1 F2I       0.031700
     67 H182         0.2920     0.0720     7.0250 h1         1 F2I       0.031700
     68 HN2         -0.4120    -2.1550     5.2530 hn         1 F2I       0.434000
     69 H191        -2.4520    -1.4520     6.3310 h1         1 F2I       0.035700
     70 H192        -1.6350    -1.6160     7.8930 h1         1 F2I       0.035700
     71 H23         -2.8620    -7.2870     6.9210 ha         1 F2I       0.127000
     72 H25         -3.2270    -3.4020     5.0930 ha         1 F2I       0.122000
     73 H27          4.3980     3.0410     5.1840 ha         1 F2I       0.133000
     74 H29          0.3720     4.4340     5.9390 ha         1 F2I       0.133000
     75 H31          3.4060     7.1980     4.6300 ha         1 F2I       0.152000
     76 HO2          1.6810    -0.7640     3.2220 ho         1 F2I       0.456000
     77 F            5.3150     5.3960     4.4970 f          1 F2I      -0.171500
     78 C6          -4.4080     3.1440     2.4760 c          1 F2I       0.614700
     79 C7          -1.4100     6.2690    -0.1460 c3         1 F2I      -0.047800
@<TRIPOS>BOND
     1     1     4 1   
     2     1     7 1   
     3     1    39 1   
     4     2     3 ar  
     5     2     4 1   
     6     2    18 ar  
     7     3    15 ar  
     8     3    40 1   
     9     4    25 2   
    10     5     6 1   
    11     5    20 1   
    12     5    44 1   
    13     5    45 1   
    14     6    24 1   
    15     6    46 1   
    16     6    47 1   
    17     7     8 1   
    18     7    26 1   
    19     7    48 1   
    20     8    14 1   
    21     8    49 1   
    22     8    50 1   
    23     9    10 ar  
    24     9    29 1   
    25     9    31 ar  
    26    10    11 ar  
    27    10    51 1   
    28    11    30 ar  
    29    11    52 1   
    30    12    30 ar  
    31    12    31 ar  
    32    12    32 1   
    33    13    33 ar  
    34    13    36 ar  
    35    13    77 1   
    36    14    33 ar  
    37    14    34 ar  
    38    15    16 ar  
    39    15    78 1   
    40    16    17 ar  
    41    16    53 1   
    42    17    18 ar  
    43    17    79 1   
    44    18    54 1   
    45    19    78 2   
    46    20    21 1   
    47    20    78 1   
    48    21    22 1   
    49    21    55 1   
    50    21    56 1   
    51    22    23 1   
    52    22    57 1   
    53    22    58 1   
    54    23    59 1   
    55    23    60 1   
    56    23    61 1   
    57    24    62 1   
    58    24    63 1   
    59    24    64 1   
    60    26    27 1   
    61    26    38 1   
    62    26    65 1   
    63    27    28 1   
    64    27    66 1   
    65    27    67 1   
    66    28    29 1   
    67    28    68 1   
    68    29    69 1   
    69    29    70 1   
    70    30    71 1   
    71    31    72 1   
    72    33    73 1   
    73    34    35 ar  
    74    34    74 1   
    75    35    36 ar  
    76    35    37 1   
    77    36    75 1   
    78    38    76 1   
    79    41    79 1   
    80    42    79 1   
    81    43    79 1   
@<TRIPOS>SUBSTRUCTURE
     1 F2I         1 TEMP              0 ****  ****    0 ROOT
