@<TRIPOS>MOLECULE
F2I
   79    81     1     0     0
SMALL
abcg2


@<TRIPOS>ATOM
      1 N1           0.5250     2.1650     4.0470 ns         1 F2I      -0.501900
      2 C4          -0.6670     3.2680     2.2970 ca         1 F2I      -0.156600
      3 C5          -1.9140     2.7370     2.6120 ca         1 F2I      -0.071000
      4 C8           0.5870     2.6100     2.7770 c          1 F2I       0.626700
      5 C10         -4.1290     2.9420     4.8290 c3         1 F2I       0.099000
      6 C13         -3.4620     1.8300     5.6340 c3         1 F2I      -0.099400
      7 C15          1.5580     1.4010     4.7040 c3         1 F2I       0.076700
      8 C17          1.9160     2.0260     6.0580 c3         1 F2I      -0.048100
      9 C20         -1.7580    -3.4350     6.8560 ca         1 F2I      -0.091300
     10 C21         -0.7050    -4.3270     7.0430 ca         1 F2I      -0.073000
     11 C22         -0.9550    -5.6720     7.2700 ca         1 F2I      -0.116000
     12 C24         -3.2990    -5.2620     7.1250 ca         1 F2I       0.196000
     13 C26          4.2350     4.8990     5.3170 ca         1 F2I       0.205000
     14 C28          2.4520     3.4180     5.8910 ca         1 F2I      -0.023300
     15 C           -3.0690     3.3520     2.1510 ca         1 F2I      -0.145600
     16 C1          -2.9660     4.4950     1.3630 ca         1 F2I      -0.051000
     17 C2          -1.7280     5.0430     1.0430 ca         1 F2I      -0.086300
     18 C3          -0.5800     4.4060     1.5070 ca         1 F2I      -0.047000
     19 O           -5.1330     2.5270     1.3970 o          1 F2I      -0.589100
     20 N           -4.8110     2.4750     3.6320 n          1 F2I      -0.406800
     21 C9          -6.1070     1.8410     3.8390 c3         1 F2I       0.099000
     22 C11         -7.2690     2.8260     3.8730 c3         1 F2I      -0.099400
     23 C12         -8.5890     2.1130     4.1300 c3         1 F2I      -0.090100
     24 C14         -2.5990     2.3970     6.7520 c3         1 F2I      -0.090100
     25 O1           1.5730     2.5130     2.0670 o          1 F2I      -0.593100
     26 C16          1.1730    -0.0850     4.8100 c3         1 F2I       0.160300
     27 C18         -0.0750    -0.3190     5.6420 c3         1 F2I       0.166800
     28 N2          -0.3530    -1.7290     5.8010 n7         1 F2I      -0.864400
     29 C19         -1.5030    -1.9650     6.6490 c3         1 F2I       0.206100
     30 C23         -2.2570    -6.1550     7.3140 ca         1 F2I      -0.077000
     31 C25         -3.0640    -3.9140     6.8930 ca         1 F2I      -0.079000
     32 I           -5.2840    -5.9640     7.1760 i          1 F2I      -0.317000
     33 C27          3.7780     3.6120     5.5160 ca         1 F2I      -0.166500
     34 C29          1.6160     4.5170     6.0590 ca         1 F2I      -0.166500
     35 C30          2.1230     5.7840     5.8460 ca         1 F2I       0.205000
     36 C31          3.4320     6.0130     5.4720 ca         1 F2I      -0.197000
     37 F1           1.3140     6.8390     6.0080 f          1 F2I      -0.171500
     38 O2           0.9260    -0.6220     3.5330 oh         1 F2I      -0.655000
     39 HN1         -0.2990     2.3900     4.5800 hn         1 F2I       0.312500
     40 H5          -1.9800     1.8150     3.1760 ha         1 F2I       0.122000
     41 H71         -2.6020     6.7120     0.0030 hc         1 F2I       0.047367
     42 H72         -1.0150     7.0410     0.6930 hc         1 F2I       0.047367
     43 H73         -1.1510     6.0620    -0.7570 hc         1 F2I       0.047367
     44 H101        -4.8580     3.4570     5.4610 h1         1 F2I       0.053200
     45 H102        -3.3900     3.6950     4.5560 h1         1 F2I       0.053200
     46 H131        -4.2160     1.1620     6.0580 hc         1 F2I       0.047450
     47 H132        -2.8560     1.2080     4.9710 hc         1 F2I       0.047450
     48 H15          2.4460     1.4580     4.0680 h1         1 F2I       0.086700
     49 H171         1.0440     2.0450     6.7170 hc         1 F2I       0.058200
     50 H172         2.6580     1.3890     6.5440 hc         1 F2I       0.058200
     51 H21          0.3150    -3.9650     7.0040 ha         1 F2I       0.132000
     52 H22         -0.1310    -6.3580     7.4140 ha         1 F2I       0.118000
     53 H1          -3.8670     4.9730     0.9970 ha         1 F2I       0.128000
     54 H3           0.3940     4.8120     1.2610 ha         1 F2I       0.133000
     55 H91         -6.0620     1.2930     4.7830 h1         1 F2I       0.053200
     56 H92         -6.2690     1.0980     3.0580 h1         1 F2I       0.053200
     57 H111        -7.0970     3.5730     4.6520 hc         1 F2I       0.047450
     58 H112        -7.3150     3.3650     2.9240 hc         1 F2I       0.047450
     59 H121        -8.5810     1.5990     5.0930 hc         1 F2I       0.034200
     60 H122        -9.4230     2.8150     4.1380 hc         1 F2I       0.034200
     61 H123        -8.7930     1.3680     3.3600 hc         1 F2I       0.034200
     62 H141        -3.1870     2.9930     7.4500 hc         1 F2I       0.034200
     63 H142        -2.1140     1.6030     7.3200 hc         1 F2I       0.034200
     64 H143        -1.8160     3.0520     6.3570 hc         1 F2I       0.034200
     65 H16          2.0100    -0.6020     5.3020 h1         1 F2I       0.048700
     66 H181        -0.9230     0.2230     5.1920 h1         1 F2I       0.031700
     67 H182         0.0740     0.1060     6.6380 h1         1 F2I       0.031700
     68 HN2         -0.5210    -2.1410     4.8910 hn         1 F2I       0.434000
     69 H191        -2.4220    -1.4870     6.2760 h1         1 F2I       0.035700
     70 H192        -1.3010    -1.5050     7.6230 h1         1 F2I       0.035700
     71 H23         -2.4390    -7.2070     7.4880 ha         1 F2I       0.127000
     72 H25         -3.8870    -3.2280     6.7390 ha         1 F2I       0.122000
     73 H27          4.4470     2.7710     5.3850 ha         1 F2I       0.133000
     74 H29          0.5830     4.3920     6.3580 ha         1 F2I       0.133000
     75 H31          3.8100     7.0140     5.3120 ha         1 F2I       0.152000
     76 HO2          1.7500    -0.6440     3.0370 ho         1 F2I       0.456000
     77 F            5.5130     5.0840     4.9600 f          1 F2I      -0.171500
     78 C6          -4.4260     2.7540     2.3710 c          1 F2I       0.614700
     79 C7          -1.6230     6.2810     0.2030 c3         1 F2I      -0.047800
@<TRIPOS>BOND
     1     1     4 1   
     2     1     7 1   
     3     1    39 1   
     4     2     3 ar  
     5     2     4 1   
     6     2    18 ar  
     7     3    15 ar  
     8     3    40 1   
     9     4    25 2   
    10     5     6 1   
    11     5    20 1   
    12     5    44 1   
    13     5    45 1   
    14     6    24 1   
    15     6    46 1   
    16     6    47 1   
    17     7     8 1   
    18     7    26 1   
    19     7    48 1   
    20     8    14 1   
    21     8    49 1   
    22     8    50 1   
    23     9    10 ar  
    24     9    29 1   
    25     9    31 ar  
    26    10    11 ar  
    27    10    51 1   
    28    11    30 ar  
    29    11    52 1   
    30    12    30 ar  
    31    12    31 ar  
    32    12    32 1   
    33    13    33 ar  
    34    13    36 ar  
    35    13    77 1   
    36    14    33 ar  
    37    14    34 ar  
    38    15    16 ar  
    39    15    78 1   
    40    16    17 ar  
    41    16    53 1   
    42    17    18 ar  
    43    17    79 1   
    44    18    54 1   
    45    19    78 2   
    46    20    21 1   
    47    20    78 1   
    48    21    22 1   
    49    21    55 1   
    50    21    56 1   
    51    22    23 1   
    52    22    57 1   
    53    22    58 1   
    54    23    59 1   
    55    23    60 1   
    56    23    61 1   
    57    24    62 1   
    58    24    63 1   
    59    24    64 1   
    60    26    27 1   
    61    26    38 1   
    62    26    65 1   
    63    27    28 1   
    64    27    66 1   
    65    27    67 1   
    66    28    29 1   
    67    28    68 1   
    68    29    69 1   
    69    29    70 1   
    70    30    71 1   
    71    31    72 1   
    72    33    73 1   
    73    34    35 ar  
    74    34    74 1   
    75    35    36 ar  
    76    35    37 1   
    77    36    75 1   
    78    38    76 1   
    79    41    79 1   
    80    42    79 1   
    81    43    79 1   
@<TRIPOS>SUBSTRUCTURE
     1 F2I         1 TEMP              0 ****  ****    0 ROOT
