@<TRIPOS>MOLECULE
F2J
   43    46     1     0     0
SMALL
abcg2


@<TRIPOS>ATOM
      1 C02          4.6640    -0.6310    -0.1880 cc         1 F2J      -0.281900
      2 C03          5.6590    -1.0610    -1.0190 cd         1 F2J      -0.078000
      3 C04          6.9530    -0.8380    -0.4880 cd         1 F2J      -0.141000
      4 C05          6.9190    -0.2500     0.7420 cc         1 F2J      -0.240000
      5 C06          3.2140    -0.7160    -0.4270 ce         1 F2J       0.695800
      6 C11          1.0650     0.2760     0.2000 ca         1 F2J       0.232000
      7 C12          0.2960    -0.8140     0.6530 ca         1 F2J      -0.104000
      8 C13         -1.0830    -0.7850     0.6140 ca         1 F2J      -0.110000
      9 C14         -1.7010     0.3690     0.1320 ca         1 F2J      -0.054200
     10 C15         -0.9440     1.4770    -0.3130 ca         1 F2J      -0.082800
     11 C16          0.4530     1.4150    -0.2860 ca         1 F2J      -0.094000
     12 C17         -1.8780     2.4660    -0.7400 cc         1 F2J      -0.244200
     13 C18         -3.1200     1.9370    -0.5420 cd         1 F2J      -0.156100
     14 C22         -5.9500    -1.6590    -0.6940 c6         1 F2J       0.149800
     15 C23         -4.7700    -0.7440    -1.0220 c6         1 F2J      -0.130400
     16 C24         -4.1480    -0.2040     0.2640 c6         1 F2J       0.089300
     17 C25         -5.2100     0.4660     1.1330 c6         1 F2J      -0.130400
     18 C26         -6.3700    -0.5030     1.3730 c6         1 F2J       0.149800
     19 N07          2.4740     0.2070     0.2780 nu         1 F2J      -0.962200
     20 N08          2.7800    -1.6170    -1.2180 n2         1 F2J      -0.813100
     21 N19         -3.0270     0.6800    -0.0090 na         1 F2J      -0.084700
     22 N21         -6.9540    -1.0420     0.1570 n7         1 F2J      -0.844400
     23 S01          5.3160     0.0360     1.2620 ss         1 F2J       0.215000
     24 H1           5.4630    -1.5110    -1.9820 ha         1 F2J       0.152000
     25 H2           7.8690    -1.1000    -0.9970 ha         1 F2J       0.136000
     26 H3           7.7520     0.0230     1.3720 h4         1 F2J       0.150000
     27 H4           0.7960    -1.6860     1.0530 ha         1 F2J       0.126000
     28 H5          -1.6480    -1.6380     0.9650 ha         1 F2J       0.117000
     29 H6           1.0490     2.2480    -0.6420 ha         1 F2J       0.118000
     30 H7          -1.6580     3.4420    -1.1420 ha         1 F2J       0.206000
     31 H8          -4.0820     2.3780    -0.7500 h4         1 F2J       0.210000
     32 H10         -5.5810    -2.5570    -0.1880 h1         1 F2J       0.057700
     33 H11         -4.0200    -1.2850    -1.6040 hc         1 F2J       0.056450
     34 H12         -5.1190     0.0920    -1.6380 hc         1 F2J       0.056450
     35 H13         -3.7450    -1.0480     0.8310 h1         1 F2J       0.068700
     36 H14         -4.7750     0.7780     2.0850 hc         1 F2J       0.056450
     37 H15         -5.5910     1.3650     0.6390 hc         1 F2J       0.056450
     38 H16         -6.0150    -1.3430     1.9800 h1         1 F2J       0.057700
     39 H17         -7.1510    -0.0090     1.9530 h1         1 F2J       0.057700
     40 H18          2.9340     1.0810     0.4830 hn         1 F2J       0.483000
     41 H19          1.7770    -1.5400    -1.3600 hn         1 F2J       0.388400
     42 H20         -7.4030    -0.2910    -0.3560 hn         1 F2J       0.406000
     43 H9          -6.4260    -1.9960    -1.6170 h1         1 F2J       0.057700
@<TRIPOS>BOND
     1     1     2 2   
     2     1     5 1   
     3     1    23 1   
     4     2     3 1   
     5     2    24 1   
     6     3     4 2   
     7     3    25 1   
     8     4    23 1   
     9     4    26 1   
    10     5    19 1   
    11     5    20 2   
    12     6     7 ar  
    13     6    11 ar  
    14     6    19 1   
    15     7     8 ar  
    16     7    27 1   
    17     8     9 ar  
    18     8    28 1   
    19     9    10 ar  
    20     9    21 1   
    21    10    11 ar  
    22    10    12 1   
    23    11    29 1   
    24    12    13 2   
    25    12    30 1   
    26    13    21 1   
    27    13    31 1   
    28    14    15 1   
    29    14    22 1   
    30    14    32 1   
    31    14    43 1   
    32    15    16 1   
    33    15    33 1   
    34    15    34 1   
    35    16    17 1   
    36    16    21 1   
    37    16    35 1   
    38    17    18 1   
    39    17    36 1   
    40    17    37 1   
    41    18    22 1   
    42    18    38 1   
    43    18    39 1   
    44    19    40 1   
    45    20    41 1   
    46    22    42 1   
@<TRIPOS>SUBSTRUCTURE
     1 F2J         1 TEMP              0 ****  ****    0 ROOT
