@<TRIPOS>MOLECULE
F2J
   43    46     1     0     0
SMALL
No Charge or Current Charge


@<TRIPOS>ATOM
      1 C02          4.7620    -0.6020    -0.1260 cc         1 F2J      -0.281900
      2 C03          5.8480    -1.4370    -0.2720 cd         1 F2J      -0.078000
      3 C04          7.0470    -0.9340     0.3000 cd         1 F2J      -0.141000
      4 C05          6.8950     0.2900     0.8970 cc         1 F2J      -0.240000
      5 C06          3.3940    -0.8130    -0.5770 ce         1 F2J       0.695800
      6 C11          1.0780     0.2170    -0.3450 ca         1 F2J       0.232000
      7 C12          0.3250    -0.9390    -0.0090 ca         1 F2J      -0.104000
      8 C13         -1.0850    -0.8880     0.0690 ca         1 F2J      -0.110000
      9 C14         -1.7220     0.3370    -0.1870 ca         1 F2J      -0.054200
     10 C15         -0.9920     1.4530    -0.4950 ca         1 F2J      -0.082800
     11 C16          0.4060     1.4350    -0.5780 ca         1 F2J      -0.094000
     12 C17         -1.9120     2.5340    -0.6860 cc         1 F2J      -0.244200
     13 C18         -3.1900     2.0270    -0.4830 cd         1 F2J      -0.156100
     14 C22         -6.3400    -1.3430    -0.7330 c6         1 F2J       0.149800
     15 C23         -5.1670    -0.3950    -1.0720 c6         1 F2J      -0.130400
     16 C24         -4.1850    -0.2900     0.1230 c6         1 F2J       0.089300
     17 C25         -4.9480     0.1290     1.4050 c6         1 F2J      -0.130400
     18 C26         -6.1280    -0.8310     1.6780 c6         1 F2J       0.149800
     19 N07          2.4770     0.2000    -0.4190 nu         1 F2J      -0.962200
     20 N08          3.0580    -1.8810    -1.1750 n2         1 F2J      -0.813100
     21 N19         -3.0770     0.6510    -0.1720 na         1 F2J      -0.084700
     22 N21         -7.0320    -0.9030     0.5030 n7         1 F2J      -0.844400
     23 S01          5.2330     0.8510     0.7620 ss         1 F2J       0.215000
     24 H1           5.7950    -2.3960    -0.7810 ha         1 F2J       0.152000
     25 H2           7.9910    -1.4700     0.2680 ha         1 F2J       0.136000
     26 H3           7.6290     0.9020     1.4050 h4         1 F2J       0.150000
     27 H4           0.8240    -1.8750     0.2170 ha         1 F2J       0.126000
     28 H5          -1.6470    -1.7810     0.3300 ha         1 F2J       0.117000
     29 H6           0.9540     2.3390    -0.8250 ha         1 F2J       0.118000
     30 H7          -1.6720     3.5650    -0.9410 ha         1 F2J       0.206000
     31 H8          -4.1510     2.5300    -0.5340 h4         1 F2J       0.210000
     32 H10         -5.9590    -2.3670    -0.5980 h1         1 F2J       0.057700
     33 H11         -4.6370    -0.7670    -1.9600 hc         1 F2J       0.056450
     34 H12         -5.5610     0.5960    -1.3330 hc         1 F2J       0.056450
     35 H13         -3.7640    -1.2890     0.2960 h1         1 F2J       0.068700
     36 H14         -4.2650     0.1280     2.2650 hc         1 F2J       0.056450
     37 H15         -5.3270     1.1560     1.3060 hc         1 F2J       0.056450
     38 H16         -5.7390    -1.8360     1.9060 h1         1 F2J       0.057700
     39 H17         -6.6900    -0.4870     2.5600 h1         1 F2J       0.057700
     40 H18          2.9190     1.1090    -0.3290 hn         1 F2J       0.483000
     41 H19          2.0930    -1.7270    -1.4820 hn         1 F2J       0.388400
     42 H20         -7.4220     0.0340     0.3390 hn         1 F2J       0.406000
     43 H9          -7.0530    -1.3640    -1.5710 h1         1 F2J       0.057700
@<TRIPOS>BOND
     1     1     2 2   
     2     1     5 1   
     3     1    23 1   
     4     2     3 1   
     5     2    24 1   
     6     3     4 2   
     7     3    25 1   
     8     4    23 1   
     9     4    26 1   
    10     5    19 1   
    11     5    20 2   
    12     6     7 ar  
    13     6    11 ar  
    14     6    19 1   
    15     7     8 ar  
    16     7    27 1   
    17     8     9 ar  
    18     8    28 1   
    19     9    10 ar  
    20     9    21 1   
    21    10    11 ar  
    22    10    12 1   
    23    11    29 1   
    24    12    13 2   
    25    12    30 1   
    26    13    21 1   
    27    13    31 1   
    28    14    15 1   
    29    14    22 1   
    30    14    32 1   
    31    14    43 1   
    32    15    16 1   
    33    15    33 1   
    34    15    34 1   
    35    16    17 1   
    36    16    21 1   
    37    16    35 1   
    38    17    18 1   
    39    17    36 1   
    40    17    37 1   
    41    18    22 1   
    42    18    38 1   
    43    18    39 1   
    44    19    40 1   
    45    20    41 1   
    46    22    42 1   
@<TRIPOS>SUBSTRUCTURE
     1 F2J         1 TEMP              0 ****  ****    0 ROOT
