@<TRIPOS>MOLECULE
F2K
   31    33     1     0     0
SMALL
bcc


@<TRIPOS>ATOM
      1 C1          -1.0510     0.1920    -0.4900 ca         1 F2K      -0.080300
      2 C           -2.0270    -0.0370    -1.4490 ca         1 F2K      -0.100000
      3 O            0.8000    -1.9340    -1.9420 o          1 F2K      -0.584500
      4 N            3.3120    -0.6750     0.8820 ns         1 F2K      -0.476100
      5 C10          1.5340    -1.5100    -1.0710 c          1 F2K       0.749700
      6 C11          1.5010     2.3070     0.6800 c2         1 F2K       0.391100
      7 C12          0.5740     2.0820    -0.2900 ce         1 F2K      -0.218900
      8 C13         -0.2300     3.1560    -0.7110 cg         1 F2K       0.215500
      9 C2          -1.3550    -0.0490     0.8460 ca         1 F2K      -0.100000
     10 C3          -2.6060    -0.5120     1.2210 ca         1 F2K      -0.122000
     11 C4          -3.5640    -0.7320     0.2420 ca         1 F2K       0.033400
     12 C5          -3.2880    -0.4970    -1.0940 ca         1 F2K      -0.122000
     13 C6           0.3130     0.7190    -0.8910 c6         1 F2K       0.160000
     14 C7           1.4150    -0.2030    -0.4710 cc         1 F2K      -0.332400
     15 C8           2.3160     0.1440     0.4640 cd         1 F2K       0.305700
     16 C9           3.4880    -1.9420     0.3780 c          1 F2K       0.842500
     17 N1           2.5750    -2.2860    -0.5820 ns         1 F2K      -0.605500
     18 N2          -0.8950     4.0320    -1.0680 n1         1 F2K      -0.384800
     19 O1           4.3730    -2.6760     0.7550 o          1 F2K      -0.609500
     20 O2           2.3420     1.3270     1.0920 os         1 F2K      -0.262200
     21 CL          -5.1340    -1.3070     0.7030 cl         1 F2K      -0.115400
     22 H2          -1.8060     0.1430    -2.4940 ha         1 F2K       0.134500
     23 H7           3.9660    -0.3560     1.5850 hn         1 F2K       0.360500
     24 H3          -0.6120     0.1230     1.6170 ha         1 F2K       0.134500
     25 H4          -2.8310    -0.6960     2.2630 ha         1 F2K       0.147000
     26 H5          -4.0400    -0.6700    -1.8520 ha         1 F2K       0.147000
     27 H6           0.3290     0.8070    -1.9820 hc         1 F2K       0.083700
     28 H8           2.6790    -3.2120    -0.9780 hn         1 F2K       0.351500
     29 H1           1.2000     4.2660     1.1180 hn         1 F2K       0.453300
     30 H            2.5830     3.5730     1.8430 hn         1 F2K       0.453300
     31 N3           1.7060     3.4320     1.3670 nv         1 F2K      -0.849600
@<TRIPOS>BOND
     1     1     2 ar  
     2     1     9 ar  
     3     1    13 1   
     4     2    12 ar  
     5     2    22 1   
     6     3     5 2   
     7     4    15 1   
     8     4    16 1   
     9     4    23 1   
    10     5    14 1   
    11     5    17 1   
    12     6     7 2   
    13     6    20 1   
    14     6    31 1   
    15     7     8 1   
    16     7    13 1   
    17     8    18 3   
    18     9    10 ar  
    19     9    24 1   
    20    10    11 ar  
    21    10    25 1   
    22    11    12 ar  
    23    11    21 1   
    24    12    26 1   
    25    13    14 1   
    26    13    27 1   
    27    14    15 2   
    28    15    20 1   
    29    16    17 1   
    30    16    19 2   
    31    17    28 1   
    32    29    31 1   
    33    30    31 1   
@<TRIPOS>SUBSTRUCTURE
     1 F2K         1 TEMP              0 ****  ****    0 ROOT
