@<TRIPOS>MOLECULE
F2K
   31    33     1     0     0
SMALL
No Charge or Current Charge


@<TRIPOS>ATOM
      1 C1          -1.0470     0.2080    -0.4800 ca         1 F2K      -0.080300
      2 C           -2.0310    -0.0320    -1.4620 ca         1 F2K      -0.082000
      3 O            0.8270    -1.8700    -1.9950 o          1 F2K      -0.509000
      4 N            3.2780    -0.7430     0.9330 ns         1 F2K      -0.522600
      5 C10          1.5460    -1.4800    -1.0910 c          1 F2K       0.607200
      6 C11          1.4650     2.3420     0.7040 c2         1 F2K       0.391100
      7 C12          0.5370     2.1490    -0.2560 ce         1 F2K      -0.218900
      8 C13         -0.2980     3.2100    -0.7240 cg         1 F2K       0.304700
      9 C2          -1.3400    -0.0670     0.8730 ca         1 F2K      -0.082000
     10 C3          -2.5990    -0.5750     1.2380 ca         1 F2K      -0.104000
     11 C4          -3.5720    -0.8110     0.2540 ca         1 F2K       0.125000
     12 C5          -3.2890    -0.5400    -1.0950 ca         1 F2K      -0.104000
     13 C6           0.3280     0.7650    -0.8750 c6         1 F2K       0.160000
     14 C7           1.4330    -0.1660    -0.4330 cc         1 F2K      -0.332400
     15 C8           2.3230     0.1500     0.5570 cd         1 F2K       0.305700
     16 C9           3.4380    -1.9740     0.3830 c          1 F2K       0.633000
     17 N1           2.5520    -2.2610    -0.6050 ns         1 F2K      -0.471500
     18 N2          -0.9480     4.0870    -1.1370 n1         1 F2K      -0.474000
     19 O1           4.3020    -2.7470     0.7450 o          1 F2K      -0.534000
     20 O2           2.2840     1.3630     1.1720 os         1 F2K      -0.262200
     21 Cl          -5.1460    -1.4480     0.7110 cl         1 F2K      -0.207000
     22 H2          -1.8230     0.1730    -2.5090 ha         1 F2K       0.116500
     23 H7           3.9340    -0.5110     1.6670 hn         1 F2K       0.474000
     24 H3          -0.5920     0.1150     1.6420 ha         1 F2K       0.116500
     25 H4          -2.8200    -0.7850     2.2810 ha         1 F2K       0.129000
     26 H5          -4.0450    -0.7240    -1.8540 ha         1 F2K       0.129000
     27 H6           0.3740     0.8740    -1.9700 hc         1 F2K       0.083700
     28 H8           2.6530    -3.1670    -1.0340 hn         1 F2K       0.351500
     29 H1           1.4820     4.3780     0.8570 hn         1 F2K       0.508500
     30 H            2.6270     3.5690     1.8400 hn         1 F2K       0.508500
     31 N3           1.7350     3.5270     1.3530 nv         1 F2K      -0.960000
@<TRIPOS>BOND
     1     1     2 ar  
     2     1     9 ar  
     3     1    13 1   
     4     2    12 ar  
     5     2    22 1   
     6     3     5 2   
     7     4    15 1   
     8     4    16 1   
     9     4    23 1   
    10     5    14 1   
    11     5    17 1   
    12     6     7 2   
    13     6    20 1   
    14     6    31 1   
    15     7     8 1   
    16     7    13 1   
    17     8    18 3   
    18     9    10 ar  
    19     9    24 1   
    20    10    11 ar  
    21    10    25 1   
    22    11    12 ar  
    23    11    21 1   
    24    12    26 1   
    25    13    14 1   
    26    13    27 1   
    27    14    15 2   
    28    15    20 1   
    29    16    17 1   
    30    16    19 2   
    31    17    28 1   
    32    29    31 1   
    33    30    31 1   
@<TRIPOS>SUBSTRUCTURE
     1 F2K         1 TEMP              0 ****  ****    0 ROOT
