@<TRIPOS>MOLECULE
F2L
   19    19     1     0     0
SMALL
No Charge or Current Charge


@<TRIPOS>ATOM
      1 C1           9.3370    33.7430    -0.4080 c3         1 F2L      -0.179100
      2 C2           8.6520    32.9570     0.7060 c          1 F2L       0.611100
      3 C3           8.2480    33.1210     3.2290 ca         1 F2L      -0.131000
      4 C4           6.9150    32.6730     3.3810 ca         1 F2L       0.199500
      5 C5           6.4250    32.3040     4.6460 ca         1 F2L      -0.165000
      6 C6           7.2530    32.3830     5.7780 ca         1 F2L      -0.058000
      7 C7           8.5700    32.8470     5.6410 ca         1 F2L      -0.165000
      8 C8           9.0590    33.2190     4.3780 ca         1 F2L       0.199500
      9 F1           6.0640    32.6460     2.3310 f          1 F2L      -0.165000
     10 F2          10.3320    33.6640     4.2720 f          1 F2L      -0.165000
     11 N1           8.7930    33.5130     1.9700 ns         1 F2L      -0.168000
     12 O1           8.0600    31.9070     0.4830 o          1 F2L      -0.570100
     13 H1           9.2250    33.2700    -1.3900 hc         1 F2L       0.064033
     14 H2           8.9540    34.7700    -0.4050 hc         1 F2L       0.064033
     15 H3          10.3910    33.8880    -0.1460 hc         1 F2L       0.064033
     16 H4           5.3970    31.9670     4.7470 ha         1 F2L       0.138500
     17 H5           6.8710    32.0970     6.7570 ha         1 F2L       0.123000
     18 H6           9.2160    32.9220     6.5130 ha         1 F2L       0.138500
     19 H7           9.3820    34.3350     2.0050 hn         1 F2L       0.163000
@<TRIPOS>BOND
     1     1     2 1   
     2     1    13 1   
     3     1    14 1   
     4     1    15 1   
     5     2    11 1   
     6     2    12 2   
     7     3     4 ar  
     8     3     8 ar  
     9     3    11 1   
    10     4     5 ar  
    11     4     9 1   
    12     5     6 ar  
    13     5    16 1   
    14     6     7 ar  
    15     6    17 1   
    16     7     8 ar  
    17     7    18 1   
    18     8    10 1   
    19    11    19 1   
@<TRIPOS>SUBSTRUCTURE
     1 F2L         1 TEMP              0 ****  ****    0 ROOT
