@<TRIPOS>MOLECULE
F2L
   19    19     1     0     0
SMALL
bcc


@<TRIPOS>ATOM
      1 C1           9.3100    33.6690    -0.3320 c3         1 F2L      -0.179100
      2 C2           8.7910    32.9570     0.8890 c          1 F2L       0.678100
      3 C3           8.2340    33.2550     3.2240 ca         1 F2L      -0.038400
      4 C4           6.9030    32.8950     3.3970 ca         1 F2L       0.164400
      5 C5           6.4120    32.4180     4.5950 ca         1 F2L      -0.183000
      6 C6           7.2800    32.3120     5.6730 ca         1 F2L      -0.076000
      7 C7           8.6160    32.6650     5.5510 ca         1 F2L      -0.183000
      8 C8           9.0670    33.1190     4.3280 ca         1 F2L       0.164400
      9 F1           6.0810    33.0260     2.3550 f          1 F2L      -0.129900
     10 F2          10.3540    33.4480     4.1830 f          1 F2L      -0.129900
     11 N1           8.7140    33.7400     2.0010 ns         1 F2L      -0.494100
     12 O1           8.4500    31.7910     0.8960 o          1 F2L      -0.570100
     13 H1           9.5230    32.9540    -1.1220 hc         1 F2L       0.064033
     14 H2           8.5630    34.3760    -0.6960 hc         1 F2L       0.064033
     15 H3          10.2140    34.2360    -0.1100 hc         1 F2L       0.064033
     16 H4           5.3680    32.1460     4.6850 ha         1 F2L       0.156500
     17 H5           6.9090    31.9480     6.6210 ha         1 F2L       0.141000
     18 H6           9.2970    32.5830     6.3870 ha         1 F2L       0.156500
     19 H7           9.0560    34.6890     1.9620 hn         1 F2L       0.329500
@<TRIPOS>BOND
     1     1     2 1   
     2     1    13 1   
     3     1    14 1   
     4     1    15 1   
     5     2    11 1   
     6     2    12 2   
     7     3     4 ar  
     8     3     8 ar  
     9     3    11 1   
    10     4     5 ar  
    11     4     9 1   
    12     5     6 ar  
    13     5    16 1   
    14     6     7 ar  
    15     6    17 1   
    16     7     8 ar  
    17     7    18 1   
    18     8    10 1   
    19    11    19 1   
@<TRIPOS>SUBSTRUCTURE
     1 F2L         1 TEMP              0 ****  ****    0 ROOT
