@<TRIPOS>MOLECULE
F2M
   24    24     1     0     0
SMALL
No Charge or Current Charge


@<TRIPOS>ATOM
      1 CAC          3.5910    -1.5720     0.6930 c3         1 F2M      -0.033900
      2 CAD          2.7990    -0.2950     0.5190 c2         1 F2M      -0.312200
      3 CAE          1.7430    -0.1540    -0.2970 c2         1 F2M       0.000000
      4 NAL          1.0210     1.0330    -0.4340 nh         1 F2M      -0.650400
      5 CAB          1.3880     2.2850     0.2750 c3         1 F2M       0.184100
      6 CAI         -0.2830     1.0360    -1.1490 c3         1 F2M       0.181500
      7 CAK         -1.3690     0.2210    -0.4880 cc         1 F2M       0.082300
      8 OAJ         -1.9030    -0.8650    -1.1490 os         1 F2M      -0.234000
      9 CAG         -2.8570    -1.4100    -0.3180 cc         1 F2M       0.126900
     10 CAF         -2.9230    -0.6820     0.8390 cd         1 F2M      -0.190000
     11 CAH         -1.9760     0.3560     0.7320 cd         1 F2M      -0.172000
     12 H1           4.6430    -1.4220     0.4210 hc         1 F2M       0.031367
     13 H2           3.5610    -1.9130     1.7350 hc         1 F2M       0.031367
     14 H3           3.1970    -2.3820     0.0670 hc         1 F2M       0.031367
     15 H4           3.1630     0.5320     1.1300 ha         1 F2M       0.170000
     16 H5           1.3760    -0.9890    -0.9020 h4         1 F2M       0.180000
     17 H6           2.4090     2.5870     0.0090 h1         1 F2M       0.036033
     18 H7           0.7120     3.1100     0.0170 h1         1 F2M       0.036033
     19 H8           1.3410     2.1340     1.3620 h1         1 F2M       0.036033
     20 H9          -0.6600     2.0610    -1.2620 h1         1 F2M       0.067700
     21 H10         -0.1350     0.6510    -2.1670 h1         1 F2M       0.067700
     22 H11         -3.3960    -2.2830    -0.6620 h4         1 F2M       0.052100
     23 H12         -3.5830    -0.8770     1.6780 ha         1 F2M       0.142000
     24 H13         -1.7580     1.1210     1.4720 ha         1 F2M       0.139000
@<TRIPOS>BOND
     1     1     2 1   
     2     1    12 1   
     3     1    13 1   
     4     1    14 1   
     5     2     3 2   
     6     2    15 1   
     7     3     4 1   
     8     3    16 1   
     9     4     5 1   
    10     4     6 1   
    11     5    17 1   
    12     5    18 1   
    13     5    19 1   
    14     6     7 1   
    15     6    20 1   
    16     6    21 1   
    17     7     8 1   
    18     7    11 2   
    19     8     9 1   
    20     9    10 2   
    21     9    22 1   
    22    10    11 1   
    23    10    23 1   
    24    11    24 1   
@<TRIPOS>SUBSTRUCTURE
     1 F2M         1 TEMP              0 ****  ****    0 ROOT
