@<TRIPOS>MOLECULE
F2M
   24    24     1     0     0
SMALL
bcc


@<TRIPOS>ATOM
      1 CAC          3.6380    -1.6130     0.2940 c3         1 F2M      -0.033900
      2 CAD          2.7500    -0.4150     0.4280 c2         1 F2M      -0.262200
      3 CAE          1.8650    -0.0570    -0.5110 c2         1 F2M       0.050000
      4 NAL          1.0750     1.0750    -0.5320 nh         1 F2M      -0.650400
      5 CAB          1.0900     1.9330     0.6250 c3         1 F2M       0.184100
      6 CAI         -0.1930     0.9790    -1.2300 c3         1 F2M       0.181500
      7 CAK         -1.2830     0.3340    -0.4450 cc         1 F2M       0.192000
      8 OAJ         -1.1930    -0.9960    -0.2120 os         1 F2M      -0.322800
      9 CAG         -2.2510    -1.3540     0.5460 cc         1 F2M       0.236600
     10 CAF         -3.0270    -0.2770     0.8060 cd         1 F2M      -0.273300
     11 CAH         -2.3920     0.8280     0.1590 cd         1 F2M      -0.255300
     12 H1           4.6960    -1.3390     0.2860 hc         1 F2M       0.031367
     13 H2           3.5050    -2.3100     1.1260 hc         1 F2M       0.031367
     14 H3           3.4370    -2.1600    -0.6280 hc         1 F2M       0.031367
     15 H4           2.8610     0.1770     1.3310 ha         1 F2M       0.120000
     16 H5           1.7570    -0.6780    -1.3970 h4         1 F2M       0.130000
     17 H6           2.1090     2.2560     0.8400 h1         1 F2M       0.036033
     18 H7           0.4930     2.8220     0.4250 h1         1 F2M       0.036033
     19 H8           0.6940     1.4530     1.5290 h1         1 F2M       0.036033
     20 H9          -0.5260     1.9840    -1.4970 h1         1 F2M       0.067700
     21 H10         -0.0290     0.4450    -2.1700 h1         1 F2M       0.067700
     22 H11         -2.3220    -2.3950     0.8170 h4         1 F2M       0.052100
     23 H12         -3.9360    -0.2670     1.3850 ha         1 F2M       0.160000
     24 H13         -2.7150     1.8570     0.1480 ha         1 F2M       0.157000
@<TRIPOS>BOND
     1     1     2 1   
     2     1    12 1   
     3     1    13 1   
     4     1    14 1   
     5     2     3 2   
     6     2    15 1   
     7     3     4 1   
     8     3    16 1   
     9     4     5 1   
    10     4     6 1   
    11     5    17 1   
    12     5    18 1   
    13     5    19 1   
    14     6     7 1   
    15     6    20 1   
    16     6    21 1   
    17     7     8 1   
    18     7    11 2   
    19     8     9 1   
    20     9    10 2   
    21     9    22 1   
    22    10    11 1   
    23    10    23 1   
    24    11    24 1   
@<TRIPOS>SUBSTRUCTURE
     1 F2M         1 TEMP              0 ****  ****    0 ROOT
