@<TRIPOS>MOLECULE
F2N
  104   110     1     0     0
SMALL
abcg2


@<TRIPOS>ATOM
      1 C4          19.9470    37.4800    32.8310 ca         1 F2N       0.126500
      2 C5          19.7260    37.0450    34.1360 ca         1 F2N      -0.090600
      3 C6          18.6230    36.1940    34.3400 ca         1 F2N       0.435900
      4 C8          21.4520    38.2960    34.2230 cc         1 F2N       0.445700
      5 N1          17.8730    35.8630    33.2710 nb         1 F2N      -0.317000
      6 N3          19.2140    37.1620    31.7590 nb         1 F2N      -0.204000
      7 CCG         32.0560    48.9350    41.7680 ca         1 F2N      -0.113500
      8 CCH         33.3250    48.3660    41.7890 ca         1 F2N      -0.110500
      9 CCI         34.4480    49.1730    41.9310 ca         1 F2N      -0.108000
     10 CCJ         34.2900    50.5500    42.0540 ca         1 F2N      -0.110500
     11 CCK         33.0190    51.1130    42.0350 ca         1 F2N      -0.113500
     12 CCF         31.8830    50.3140    41.8880 ca         1 F2N      -0.075300
     13 CCD         30.4970    50.9100    41.8910 c3         1 F2N      -0.022100
     14 CCE         30.3200    52.1790    41.0080 c3         1 F2N      -0.151400
     15 CCC         29.2210    51.9870    39.9910 c          1 F2N       0.575900
     16 OCB         28.1080    52.4710    40.1540 o          1 F2N      -0.593100
     17 NBD         29.5020    51.2020    38.8840 n          1 F2N      -0.009800
     18 CBE         28.4260    50.6000    38.1590 ca         1 F2N      -0.046000
     19 CBL         28.3950    49.2040    38.1370 ca         1 F2N      -0.035000
     20 CBK         27.2980    48.5680    37.5590 ca         1 F2N      -0.144000
     21 CBI         26.2650    49.2970    36.9700 ca         1 F2N      -0.043300
     22 CBJ         25.1000    48.5700    36.3580 c3         1 F2N      -0.055800
     23 CBG         26.3340    50.6980    36.9420 ca         1 F2N      -0.086300
     24 CBH         25.2490    51.5130    36.2930 c3         1 F2N      -0.040800
     25 CBF         27.4220    51.3280    37.5420 ca         1 F2N      -0.060000
     26 CBC         30.7420    50.5290    38.7020 cc         1 F2N      -0.333600
     27 CBA         31.9670    51.2260    38.4620 c          1 F2N       0.620600
     28 OBB         32.1050    52.4440    38.3550 o          1 F2N      -0.557000
     29 NAZ         33.0940    50.3980    38.3940 ns         1 F2N      -0.463500
     30 CAY         33.1180    49.0320    38.4390 c          1 F2N       0.629000
     31 OAY         34.1380    48.3670    38.3550 o          1 F2N      -0.557000
     32 NAW         31.8720    48.4480    38.5530 ns         1 F2N      -0.513600
     33 CBN         30.7070    49.1560    38.6550 cd         1 F2N       0.193600
     34 CBO         29.4530    47.0420    38.8070 c3         1 F2N       0.024600
     35 CBP         29.8360    46.2210    37.5370 c3         1 F2N       0.102300
     36 OBQ         29.8110    47.0010    36.3420 oh         1 F2N      -0.713000
     37 CBR         28.9750    44.9480    37.4620 c3         1 F2N       0.092300
     38 OBS         29.0680    44.2740    38.7150 oh         1 F2N      -0.658000
     39 CBT         29.3580    44.0190    36.2970 c3         1 F2N       0.146300
     40 OBU         29.1820    44.6600    35.0370 oh         1 F2N      -0.658000
     41 CBV         28.4930    42.7760    36.3090 c3         1 F2N       0.231600
     42 OBW         28.9830    41.8540    35.3310 os         1 F2N      -0.586400
     43 PBX         28.1210    40.5150    35.0150 p5         1 F2N       1.483800
     44 OBY         28.8360    39.8070    33.9150 o          1 F2N      -0.855500
     45 OBZ         27.7850    39.8060    36.2860 o          1 F2N      -0.855500
     46 OCA         26.7060    41.1430    34.4950 os         1 F2N      -0.739800
     47 PAA         26.2480    41.8620    33.1050 p5         1 F2N       1.479800
     48 OAB         27.3770    42.5880    32.4600 o          1 F2N      -0.854500
     49 OAC         24.9710    42.5640    33.4340 o          1 F2N      -0.854500
     50 O5          25.9480    40.5750    32.1540 os         1 F2N      -0.588400
     51 C9          24.9130    39.6590    32.5060 c3         1 F2N       0.218600
     52 C7          23.9400    39.5370    31.3420 c5         1 F2N       0.140300
     53 O4          23.0210    38.4550    31.6330 os         1 F2N      -0.469000
     54 C3          23.0830    40.7740    31.1130 c5         1 F2N       0.151300
     55 O3          22.7360    40.8310    29.7310 oh         1 F2N      -0.731000
     56 C2          21.8590    40.4780    31.9750 c5         1 F2N       0.087300
     57 O2          20.7400    41.2190    31.5380 oh         1 F2N      -0.720000
     58 C1          21.7040    38.9600    31.7940 c5         1 F2N       0.273300
     59 N9          21.0600    38.2910    32.9010 na         1 F2N      -0.287300
     60 N7          20.6820    37.5670    34.9910 nd         1 F2N      -0.580100
     61 C10         18.2030    36.3520    32.0710 ca         1 F2N       0.155900
     62 N6          18.2970    35.6980    35.5440 nv         1 F2N      -1.081900
     63 H8          22.3190    38.8470    34.5500 h5         1 F2N       0.098800
     64 HCI         35.4380    48.7340    41.9380 ha         1 F2N       0.114000
     65 HCJ         35.1580    51.1880    42.1640 ha         1 F2N       0.112000
     66 HCK         32.9120    52.1870    42.1300 ha         1 F2N       0.111000
     67 HCD1        29.7850    50.1400    41.5880 hc         1 F2N       0.053700
     68 HCD2        30.2290    51.1740    42.9170 hc         1 F2N       0.053700
     69 HCE1        30.0190    53.0270    41.6190 hc         1 F2N       0.075200
     70 HCE2        31.2540    52.4450    40.5200 hc         1 F2N       0.075200
     71 HBK         27.2130    47.4910    37.5640 ha         1 F2N       0.132000
     72 HBJ1        24.1620    48.8550    36.8420 hc         1 F2N       0.054700
     73 HBJ2        24.9950    48.8160    35.2980 hc         1 F2N       0.054700
     74 HBJ3        25.2190    47.4910    36.4490 hc         1 F2N       0.054700
     75 HBH1        24.2800    51.3310    36.7660 hc         1 F2N       0.042033
     76 HBH2        25.4680    52.5780    36.3630 hc         1 F2N       0.042033
     77 HBH3        25.1380    51.2550    35.2370 hc         1 F2N       0.042033
     78 HBF         27.4790    52.4070    37.5550 ha         1 F2N       0.133000
     79 HNAZ        33.9860    50.8590    38.2780 hn         1 F2N       0.341500
     80 HNAW        31.8750    47.4400    38.5260 hn         1 F2N       0.470000
     81 HBO1        30.1030    46.7630    39.6330 h1         1 F2N       0.075700
     82 HBO2        28.4430    46.8000    39.1250 h1         1 F2N       0.075700
     83 HBP         30.8750    45.8920    37.6160 h1         1 F2N       0.064700
     84 HOBQ        28.9410    47.4100    36.2240 ho         1 F2N       0.521000
     85 HBR         27.9240    45.2300    37.3520 h1         1 F2N       0.085700
     86 HOBS        29.9690    43.9400    38.8240 ho         1 F2N       0.440000
     87 HBT         30.4090    43.7200    36.4270 h1         1 F2N       0.028700
     88 HOBU        29.5790    45.5430    35.1050 ho         1 F2N       0.479000
     89 HBV1        28.5160    42.3140    37.2950 h1         1 F2N       0.038200
     90 HBV2        27.4630    43.0580    36.0720 h1         1 F2N       0.038200
     91 H5'1        25.3590    38.6820    32.7010 h1         1 F2N       0.038700
     92 H5'2        24.3900    39.9840    33.4070 h1         1 F2N       0.038700
     93 H4          24.4870    39.2880    30.4310 h1         1 F2N       0.098700
     94 H3          23.5920    41.6850    31.4300 h1         1 F2N       0.131700
     95 HO3         21.9970    41.4480    29.6390 ho         1 F2N       0.507000
     96 H2          22.0940    40.7050    33.0180 h1         1 F2N       0.080700
     97 HO2         20.0590    41.2000    32.2220 ho         1 F2N       0.506000
     98 H1          21.0950    38.7510    30.9130 h2         1 F2N       0.096700
     99 H6          17.5630    36.0490    31.2490 h5         1 F2N       0.033100
    100 HN61        18.8200    35.9510    36.3640 hn         1 F2N       0.500500
    101 HN62        17.4820    35.1150    35.6420 hn         1 F2N       0.500500
    102 HCG         31.1860    48.3010    41.6400 ha         1 F2N       0.111000
    103 NBM         29.5150    48.4920    38.6470 na         1 F2N      -0.085000
    104 HCH         33.4350    47.2950    41.6780 ha         1 F2N       0.112000
@<TRIPOS>BOND
     1     1     2 ar  
     2     1     6 ar  
     3     1    59 1   
     4     2     3 ar  
     5     2    60 1   
     6     3     5 ar  
     7     3    62 1   
     8     4    59 1   
     9     4    60 2   
    10     4    63 1   
    11     5    61 ar  
    12     6    61 ar  
    13     7     8 ar  
    14     7    12 ar  
    15     7   102 1   
    16     8     9 ar  
    17     8   104 1   
    18     9    10 ar  
    19     9    64 1   
    20    10    11 ar  
    21    10    65 1   
    22    11    12 ar  
    23    11    66 1   
    24    12    13 1   
    25    13    14 1   
    26    13    67 1   
    27    13    68 1   
    28    14    15 1   
    29    14    69 1   
    30    14    70 1   
    31    15    16 2   
    32    15    17 1   
    33    17    18 1   
    34    17    26 1   
    35    18    19 ar  
    36    18    25 ar  
    37    19    20 ar  
    38    19   103 1   
    39    20    21 ar  
    40    20    71 1   
    41    21    22 1   
    42    21    23 ar  
    43    22    72 1   
    44    22    73 1   
    45    22    74 1   
    46    23    24 1   
    47    23    25 ar  
    48    24    75 1   
    49    24    76 1   
    50    24    77 1   
    51    25    78 1   
    52    26    27 1   
    53    26    33 2   
    54    27    28 2   
    55    27    29 1   
    56    29    30 1   
    57    29    79 1   
    58    30    31 2   
    59    30    32 1   
    60    32    33 1   
    61    32    80 1   
    62    33   103 1   
    63    34    35 1   
    64    34    81 1   
    65    34    82 1   
    66    34   103 1   
    67    35    36 1   
    68    35    37 1   
    69    35    83 1   
    70    36    84 1   
    71    37    38 1   
    72    37    39 1   
    73    37    85 1   
    74    38    86 1   
    75    39    40 1   
    76    39    41 1   
    77    39    87 1   
    78    40    88 1   
    79    41    42 1   
    80    41    89 1   
    81    41    90 1   
    82    42    43 1   
    83    43    44 1   
    84    43    45 1   
    85    43    46 1   
    86    46    47 1   
    87    47    48 1   
    88    47    49 1   
    89    47    50 1   
    90    50    51 1   
    91    51    52 1   
    92    51    91 1   
    93    51    92 1   
    94    52    53 1   
    95    52    54 1   
    96    52    93 1   
    97    53    58 1   
    98    54    55 1   
    99    54    56 1   
   100    54    94 1   
   101    55    95 1   
   102    56    57 1   
   103    56    58 1   
   104    56    96 1   
   105    57    97 1   
   106    58    59 1   
   107    58    98 1   
   108    61    99 1   
   109    62   100 1   
   110    62   101 1   
@<TRIPOS>SUBSTRUCTURE
     1 F2N         1 TEMP              0 ****  ****    0 ROOT
