@<TRIPOS>MOLECULE
F2N
  104   110     1     0     0
SMALL
No Charge or Current Charge


@<TRIPOS>ATOM
      1 C4          21.1490    36.8070    33.8780 ca         1 F2N       0.126500
      2 C5          21.6470    36.0980    34.9430 ca         1 F2N      -0.090600
      3 C6          21.1830    34.7800    35.1390 ca         1 F2N       0.435900
      4 C8          22.6160    38.0190    35.0400 cc         1 F2N       0.445700
      5 N1          20.2750    34.2330    34.3150 nb         1 F2N      -0.317000
      6 N3          20.2390    36.2870    33.0310 nb         1 F2N      -0.204000
      7 CCG         27.9780    50.2710    41.4030 ca         1 F2N      -0.113500
      8 CCH         27.1250    49.3680    40.7460 ca         1 F2N      -0.110500
      9 CCI         27.4820    48.0140    40.6380 ca         1 F2N      -0.108000
     10 CCJ         28.6960    47.5640    41.1840 ca         1 F2N      -0.110500
     11 CCK         29.5550    48.4690    41.8320 ca         1 F2N      -0.113500
     12 CCF         29.2000    49.8270    41.9470 ca         1 F2N      -0.075300
     13 CCD         30.1390    50.8110    42.6360 c3         1 F2N      -0.022100
     14 CCE         31.3700    51.1580    41.7690 c3         1 F2N      -0.151400
     15 CCC         30.9460    51.8300    40.4490 c          1 F2N       0.575900
     16 OCB         30.6580    53.0240    40.4400 o          1 F2N      -0.593100
     17 NBD         30.7970    50.9790    39.3100 n          1 F2N      -0.009800
     18 CBE         29.5640    50.8620    38.5900 ca         1 F2N      -0.046000
     19 CBL         29.3230    49.6470    37.9130 ca         1 F2N      -0.035000
     20 CBK         28.1500    49.5360    37.1270 ca         1 F2N      -0.144000
     21 CBI         27.2450    50.6030    36.9910 ca         1 F2N      -0.043300
     22 CBJ         25.9930    50.4190    36.1370 c3         1 F2N      -0.055800
     23 CBG         27.5130    51.8250    37.6380 ca         1 F2N      -0.086300
     24 CBH         26.5700    53.0180    37.5020 c3         1 F2N      -0.040800
     25 CBF         28.6770    51.9490    38.4160 ca         1 F2N      -0.060000
     26 CBC         31.8190    50.1010    38.9110 cc         1 F2N      -0.333600
     27 CBA         33.2440    50.4570    39.1520 c          1 F2N       0.620600
     28 OBB         33.6330    51.5260    39.5900 o          1 F2N      -0.557000
     29 NAZ         34.1370    49.4850    38.8400 ns         1 F2N      -0.463500
     30 CAY         33.8900    48.2510    38.3520 c          1 F2N       0.629000
     31 OAY         34.7640    47.4400    38.1250 o          1 F2N      -0.557000
     32 NAW         32.5780    47.9910    38.1330 ns         1 F2N      -0.513600
     33 CBN         31.5400    48.8650    38.3480 cd         1 F2N       0.193600
     34 CBO         29.6920    47.1420    37.9130 c3         1 F2N       0.024600
     35 CBP         30.0300    46.4400    36.5610 c3         1 F2N       0.102300
     36 OBQ         29.8550    47.3550    35.4600 oh         1 F2N      -0.713000
     37 CBR         29.1700    45.1470    36.3400 c3         1 F2N       0.092300
     38 OBS         29.3450    44.2620    37.4660 oh         1 F2N      -0.658000
     39 CBT         29.4800    44.3820    35.0070 c3         1 F2N       0.146300
     40 OBU         29.3290    45.2890    33.8990 oh         1 F2N      -0.658000
     41 CBV         28.5730    43.1240    34.8130 c3         1 F2N       0.231600
     42 OBW         29.0030    42.3970    33.6510 os         1 F2N      -0.586400
     43 PBX         28.0320    41.2580    33.0580 p5         1 F2N       1.483800
     44 OBY         28.8150    40.4030    32.1170 o          1 F2N      -0.855500
     45 OBZ         27.4260    40.4750    34.1760 o          1 F2N      -0.855500
     46 OCA         27.0020    42.2340    32.3710 os         1 F2N      -0.739800
     47 PAA         26.1850    41.6790    31.1440 p5         1 F2N       1.479800
     48 OAB         27.0230    41.5200    29.9190 o          1 F2N      -0.854500
     49 OAC         25.0390    42.5900    30.8610 o          1 F2N      -0.854500
     50 O5          25.6470    40.2660    31.7080 os         1 F2N      -0.588400
     51 C9          24.5200    40.2130    32.5980 c3         1 F2N       0.218600
     52 C7          23.1790    40.3170    31.7950 c5         1 F2N       0.140300
     53 O4          22.4450    39.0660    31.9040 os         1 F2N      -0.469000
     54 C3          22.1760    41.3810    32.3480 c5         1 F2N       0.151300
     55 O3          21.0930    41.6740    31.4480 oh         1 F2N      -0.731000
     56 C2          21.6330    40.6170    33.5900 c5         1 F2N       0.087300
     57 O2          20.3720    41.1710    34.0260 oh         1 F2N      -0.720000
     58 C1          21.5230    39.1510    33.0190 c5         1 F2N       0.273300
     59 N9          21.7590    38.0290    33.9320 na         1 F2N      -0.287300
     60 N7          22.5690    36.8380    35.6890 nd         1 F2N      -0.580100
     61 C10         19.8470    35.0170    33.2960 ca         1 F2N       0.155900
     62 N6          21.6090    33.9940    36.1640 nv         1 F2N      -1.081900
     63 H8          23.2320    38.8670    35.3150 h5         1 F2N       0.098800
     64 HCI         26.8210    47.3160    40.1290 ha         1 F2N       0.114000
     65 HCJ         28.9740    46.5160    41.1010 ha         1 F2N       0.112000
     66 HCK         30.4960    48.1130    42.2450 ha         1 F2N       0.111000
     67 HCD1        29.6080    51.7350    42.8940 hc         1 F2N       0.053700
     68 HCD2        30.4840    50.3860    43.5870 hc         1 F2N       0.053700
     69 HCE1        32.0100    51.8470    42.3310 hc         1 F2N       0.075200
     70 HCE2        31.9060    50.2240    41.5730 hc         1 F2N       0.075200
     71 HBK         27.9150    48.6110    36.6100 ha         1 F2N       0.132000
     72 HBJ1        25.0840    50.5780    36.7300 hc         1 F2N       0.054700
     73 HBJ2        25.9790    51.1270    35.3000 hc         1 F2N       0.054700
     74 HBJ3        25.9310    49.4110    35.7120 hc         1 F2N       0.054700
     75 HBH1        25.5690    52.7740    37.8790 hc         1 F2N       0.042033
     76 HBH2        26.9260    53.8880    38.0650 hc         1 F2N       0.042033
     77 HBH3        26.4720    53.3260    36.4540 hc         1 F2N       0.042033
     78 HBF         28.8760    52.9100    38.8770 ha         1 F2N       0.133000
     79 HNAZ        35.1050    49.7080    39.0010 hn         1 F2N       0.341500
     80 HNAW        32.4120    47.0620    37.7740 hn         1 F2N       0.470000
     81 HBO1        30.1120    46.5430    38.7300 h1         1 F2N       0.075700
     82 HBO2        28.6060    47.1300    38.0680 h1         1 F2N       0.075700
     83 HBP         31.0830    46.1290    36.5940 h1         1 F2N       0.064700
     84 HOBQ        30.2010    48.2350    35.7440 ho         1 F2N       0.521000
     85 HBR         28.1180    45.4630    36.2960 h1         1 F2N       0.085700
     86 HOBS        30.2630    43.9120    37.4420 ho         1 F2N       0.440000
     87 HBT         30.5230    44.0430    35.0540 h1         1 F2N       0.028700
     88 HOBU        29.5210    46.1850    34.2940 ho         1 F2N       0.479000
     89 HBV1        28.6450    42.4820    35.7010 h1         1 F2N       0.038200
     90 HBV2        27.5270    43.4460    34.7170 h1         1 F2N       0.038200
     91 H5'1        24.5360    39.2720    33.1630 h1         1 F2N       0.038700
     92 H5'2        24.5750    41.0300    33.3290 h1         1 F2N       0.038700
     93 H4          23.4070    40.5020    30.7380 h1         1 F2N       0.098700
     94 H3          22.7000    42.3050    32.6410 h1         1 F2N       0.131700
     95 HO3         20.3120    41.7270    32.0550 ho         1 F2N       0.507000
     96 H2          22.3710    40.6710    34.4030 h1         1 F2N       0.080700
     97 HO2         20.1330    40.7460    34.8860 ho         1 F2N       0.506000
     98 H1          20.5070    39.0030    32.6300 h2         1 F2N       0.096700
     99 H6          19.1110    34.5830    32.6220 h5         1 F2N       0.033100
    100 HN61        22.1190    34.4590    36.9120 hn         1 F2N       0.500500
    101 HN62        21.0390    33.1950    36.4260 hn         1 F2N       0.500500
    102 HCG         27.6940    51.3180    41.4760 ha         1 F2N       0.111000
    103 NBM         30.1920    48.5340    38.0750 na         1 F2N      -0.085000
    104 HCH         26.1890    49.7190    40.3170 ha         1 F2N       0.112000
@<TRIPOS>BOND
     1     1     2 ar  
     2     1     6 ar  
     3     1    59 1   
     4     2     3 ar  
     5     2    60 1   
     6     3     5 ar  
     7     3    62 1   
     8     4    59 1   
     9     4    60 2   
    10     4    63 1   
    11     5    61 ar  
    12     6    61 ar  
    13     7     8 ar  
    14     7    12 ar  
    15     7   102 1   
    16     8     9 ar  
    17     8   104 1   
    18     9    10 ar  
    19     9    64 1   
    20    10    11 ar  
    21    10    65 1   
    22    11    12 ar  
    23    11    66 1   
    24    12    13 1   
    25    13    14 1   
    26    13    67 1   
    27    13    68 1   
    28    14    15 1   
    29    14    69 1   
    30    14    70 1   
    31    15    16 2   
    32    15    17 1   
    33    17    18 1   
    34    17    26 1   
    35    18    19 ar  
    36    18    25 ar  
    37    19    20 ar  
    38    19   103 1   
    39    20    21 ar  
    40    20    71 1   
    41    21    22 1   
    42    21    23 ar  
    43    22    72 1   
    44    22    73 1   
    45    22    74 1   
    46    23    24 1   
    47    23    25 ar  
    48    24    75 1   
    49    24    76 1   
    50    24    77 1   
    51    25    78 1   
    52    26    27 1   
    53    26    33 2   
    54    27    28 2   
    55    27    29 1   
    56    29    30 1   
    57    29    79 1   
    58    30    31 2   
    59    30    32 1   
    60    32    33 1   
    61    32    80 1   
    62    33   103 1   
    63    34    35 1   
    64    34    81 1   
    65    34    82 1   
    66    34   103 1   
    67    35    36 1   
    68    35    37 1   
    69    35    83 1   
    70    36    84 1   
    71    37    38 1   
    72    37    39 1   
    73    37    85 1   
    74    38    86 1   
    75    39    40 1   
    76    39    41 1   
    77    39    87 1   
    78    40    88 1   
    79    41    42 1   
    80    41    89 1   
    81    41    90 1   
    82    42    43 1   
    83    43    44 1   
    84    43    45 1   
    85    43    46 1   
    86    46    47 1   
    87    47    48 1   
    88    47    49 1   
    89    47    50 1   
    90    50    51 1   
    91    51    52 1   
    92    51    91 1   
    93    51    92 1   
    94    52    53 1   
    95    52    54 1   
    96    52    93 1   
    97    53    58 1   
    98    54    55 1   
    99    54    56 1   
   100    54    94 1   
   101    55    95 1   
   102    56    57 1   
   103    56    58 1   
   104    56    96 1   
   105    57    97 1   
   106    58    59 1   
   107    58    98 1   
   108    61    99 1   
   109    62   100 1   
   110    62   101 1   
@<TRIPOS>SUBSTRUCTURE
     1 F2N         1 TEMP              0 ****  ****    0 ROOT
