@<TRIPOS>MOLECULE
F2R
   79    82     1     0     0
SMALL
No Charge or Current Charge


@<TRIPOS>ATOM
      1 N1          -4.8710     2.3490    -2.8060 n2         1 F2R      -0.927100
      2 C1          -4.7350     1.2720    -2.1940 c2         1 F2R       0.842100
      3 N2          -5.4420     0.1930    -2.5250 nu         1 F2R      -0.900400
      4 C2          -6.9010     0.2150    -2.6890 c3         1 F2R       0.221800
      5 C3          -7.6010     0.2790    -1.3130 c3         1 F2R      -0.099400
      6 C4          -9.1460     0.2270    -1.4210 c3         1 F2R      -0.097400
      7 C5          -9.8960     0.3450    -0.0660 c3         1 F2R       0.030500
      8 N3          -9.5500    -0.8230     0.8250 n8         1 F2R      -0.997200
      9 C6         -11.4460     0.6180    -0.3010 c          1 F2R       0.724000
     10 O1         -12.1370    -0.2810    -0.7710 o          1 F2R      -0.747500
     11 O2         -11.9110     1.6910     0.0630 o          1 F2R      -0.747500
     12 N4          -3.5010     0.9010    -1.9020 nu         1 F2R      -0.964400
     13 C7          -3.4710     0.7090    -0.4380 c5         1 F2R       0.419500
     14 O3          -3.1500    -0.6820    -0.3010 os         1 F2R      -0.445000
     15 C8          -1.7990    -0.8060     0.2180 c5         1 F2R       0.171300
     16 C9          -1.6610    -2.1260     1.0270 c3         1 F2R       0.230600
     17 O4          -1.3830    -3.2210     0.1370 os         1 F2R      -0.565400
     18 P1           0.1220    -3.7830    -0.0220 p5         1 F2R       1.459800
     19 O5           0.0880    -5.0040    -0.8820 o          1 F2R      -0.848000
     20 O6           0.7070    -4.0310     1.3320 o          1 F2R      -0.848000
     21 O7           0.7230    -2.5250    -0.7520 os         1 F2R      -0.686800
     22 P2           2.1850    -2.7310    -1.3080 p5         1 F2R       1.444800
     23 O8           2.1590    -2.9180    -2.7910 o          1 F2R      -0.843500
     24 O9           3.0150    -3.7760    -0.6390 o          1 F2R      -0.843500
     25 O10          2.7200    -1.2470    -0.9590 os         1 F2R      -0.554400
     26 C10          2.9260    -0.7990     0.3950 c3         1 F2R       0.217600
     27 C11          4.1900    -1.4420     1.0520 c5         1 F2R       0.125300
     28 O11          5.3700    -1.2040     0.2280 os         1 F2R      -0.401000
     29 C12          6.2530    -0.2790     0.9060 c5         1 F2R       0.319300
     30 N5           6.8760     0.6190    -0.0640 na         1 F2R      -0.277300
     31 C13          8.2540     0.7350    -0.2690 cc         1 F2R       0.456700
     32 N6           8.5330     1.6460    -1.2240 nd         1 F2R      -0.586100
     33 C14          7.2680     2.1020    -1.6130 ca         1 F2R      -0.087600
     34 C15          6.9200     3.0650    -2.5840 ca         1 F2R       0.435900
     35 N7           7.8440     3.7320    -3.3260 nv         1 F2R      -1.081900
     36 N8           5.6360     3.3700    -2.8330 nb         1 F2R      -0.327000
     37 C16          4.7140     2.7050    -2.0950 ca         1 F2R       0.150900
     38 N9           4.9560     1.7730    -1.1430 nb         1 F2R      -0.197000
     39 C17          6.2550     1.4860    -0.9210 ca         1 F2R       0.117500
     40 C18          5.3850     0.3920     2.0210 c5         1 F2R       0.064300
     41 O12          6.1490     0.9210     3.1240 oh         1 F2R      -0.707000
     42 C19          4.5290    -0.8300     2.4510 c5         1 F2R       0.106300
     43 O13          5.3010    -1.7120     3.2760 oh         1 F2R      -0.697000
     44 C20         -1.6200     0.4910     1.0660 c5         1 F2R       0.123300
     45 O14         -0.2610     0.8220     1.3570 oh         1 F2R      -0.681000
     46 C21         -2.2240     1.5320     0.0840 c5         1 F2R       0.088300
     47 O15         -1.3030     1.8640    -0.9720 oh         1 F2R      -0.691000
     48 H1          -3.9910     2.8510    -2.6580 hn         1 F2R       0.349400
     49 H3          -5.0870    -0.6300    -2.0560 hn         1 F2R       0.504000
     50 H4          -7.2130     1.0670    -3.3080 h1         1 F2R       0.040200
     51 H5          -7.2200    -0.7020    -3.2040 h1         1 F2R       0.040200
     52 H6          -7.2460    -0.5580    -0.6990 hc         1 F2R       0.044200
     53 H7          -7.3060     1.2040    -0.8020 hc         1 F2R       0.044200
     54 H8          -9.4730     1.0520    -2.0670 hc         1 F2R       0.038200
     55 H9          -9.4480    -0.6990    -1.9270 hc         1 F2R       0.038200
     56 H10         -9.5040     1.2420     0.4350 h1         1 F2R       0.033700
     57 H11         -9.9680    -1.6730     0.4260 hn         1 F2R       0.391000
     58 H12         -8.5400    -0.9980     0.7710 hn         1 F2R       0.391000
     59 H15         -3.2520     0.0890    -2.4490 hn         1 F2R       0.470000
     60 H16         -4.3990     0.9570     0.1020 h2         1 F2R       0.070700
     61 H17         -1.0960    -0.8120    -0.6250 h1         1 F2R       0.083700
     62 H18         -0.8540    -2.0040     1.7620 h1         1 F2R       0.016200
     63 H19         -2.5880    -2.3100     1.5860 h1         1 F2R       0.016200
     64 H22          3.0310     0.2930     0.4040 h1         1 F2R       0.008700
     65 H23          2.0520    -1.0420     1.0140 h1         1 F2R       0.008700
     66 H24          4.0250    -2.5200     1.1550 h1         1 F2R       0.149700
     67 H25          7.0650    -0.8480     1.3760 h2         1 F2R       0.099700
     68 H26          8.9770     0.1490     0.2900 h5         1 F2R       0.117800
     69 H27          8.7900     3.3590    -3.3140 hn         1 F2R       0.497000
     70 H28          7.5370     4.1750    -4.1880 hn         1 F2R       0.497000
     71 H29          3.6700     2.9450    -2.2870 h5         1 F2R       0.026100
     72 H30          4.7490     1.1760     1.5870 h1         1 F2R       0.057700
     73 H31          5.7260     1.7690     3.4020 ho         1 F2R       0.495000
     74 H32          3.6200    -0.5150     2.9830 h1         1 F2R       0.048700
     75 H33          5.9060    -1.1090     3.7720 ho         1 F2R       0.493000
     76 H34         -2.2100     0.4330     1.9920 h1         1 F2R       0.039700
     77 H35          0.0110     1.3670     0.5780 ho         1 F2R       0.480000
     78 H36         -2.5460     2.4430     0.6070 h1         1 F2R       0.027700
     79 H37         -1.8630     1.6650    -1.7700 ho         1 F2R       0.484000
@<TRIPOS>BOND
     1     1     2 2   
     2     1    48 1   
     3     2     3 1   
     4     2    12 1   
     5     3     4 1   
     6     3    49 1   
     7     4     5 1   
     8     4    50 1   
     9     4    51 1   
    10     5     6 1   
    11     5    52 1   
    12     5    53 1   
    13     6     7 1   
    14     6    54 1   
    15     6    55 1   
    16     7     8 1   
    17     7     9 1   
    18     7    56 1   
    19     8    57 1   
    20     8    58 1   
    21     9    10 1   
    22     9    11 1   
    23    12    13 1   
    24    12    59 1   
    25    13    14 1   
    26    13    46 1   
    27    13    60 1   
    28    14    15 1   
    29    15    16 1   
    30    15    44 1   
    31    15    61 1   
    32    16    17 1   
    33    16    62 1   
    34    16    63 1   
    35    17    18 1   
    36    18    19 1   
    37    18    20 1   
    38    18    21 1   
    39    21    22 1   
    40    22    23 1   
    41    22    24 1   
    42    22    25 1   
    43    25    26 1   
    44    26    27 1   
    45    26    64 1   
    46    26    65 1   
    47    27    28 1   
    48    27    42 1   
    49    27    66 1   
    50    28    29 1   
    51    29    30 1   
    52    29    40 1   
    53    29    67 1   
    54    30    31 1   
    55    30    39 1   
    56    31    32 2   
    57    31    68 1   
    58    32    33 1   
    59    33    34 ar  
    60    33    39 ar  
    61    34    35 1   
    62    34    36 ar  
    63    35    69 1   
    64    35    70 1   
    65    36    37 ar  
    66    37    38 ar  
    67    37    71 1   
    68    38    39 ar  
    69    40    41 1   
    70    40    42 1   
    71    40    72 1   
    72    41    73 1   
    73    42    43 1   
    74    42    74 1   
    75    43    75 1   
    76    44    45 1   
    77    44    46 1   
    78    44    76 1   
    79    45    77 1   
    80    46    47 1   
    81    46    78 1   
    82    47    79 1   
@<TRIPOS>SUBSTRUCTURE
     1 F2R         1 TEMP              0 ****  ****    0 ROOT
