@<TRIPOS>MOLECULE
F2R
   79    82     1     0     0
SMALL
abcg2


@<TRIPOS>ATOM
      1 N1          -5.8860     1.5840    -4.0590 n2         1 F2R      -0.927100
      2 C1          -5.5230     1.8010    -2.8490 c2         1 F2R       0.842100
      3 N2          -5.8680     0.9340    -1.8500 nu         1 F2R      -0.900400
      4 C2          -6.6220    -0.2650    -2.1470 c3         1 F2R       0.221800
      5 C3          -7.0650    -0.9410    -0.8590 c3         1 F2R      -0.099400
      6 C4          -7.8890    -2.1940    -1.1220 c3         1 F2R      -0.097400
      7 C5          -8.4260    -2.8630     0.1550 c3         1 F2R       0.030500
      8 N3          -7.4020    -3.3310     1.0760 n8         1 F2R      -0.997200
      9 C6          -9.3550    -4.0240    -0.2610 c          1 F2R       0.724000
     10 O1          -8.8790    -5.1760    -0.2270 o          1 F2R      -0.747500
     11 O2         -10.4990    -3.7040    -0.6420 o          1 F2R      -0.747500
     12 N4          -4.8330     2.9280    -2.4430 nu         1 F2R      -0.964400
     13 C7          -4.4650     3.2200    -1.1110 c5         1 F2R       0.419500
     14 O3          -3.3090     2.4800    -0.7020 os         1 F2R      -0.445000
     15 C8          -2.4530     3.2850     0.0920 c5         1 F2R       0.171300
     16 C9          -2.0590     2.5710     1.3630 c3         1 F2R       0.230600
     17 O4          -1.2220     1.4820     1.0380 os         1 F2R      -0.565400
     18 P1          -0.9760     0.3400     2.1980 p5         1 F2R       1.459800
     19 O5          -2.0920    -0.6540     2.1730 o          1 F2R      -0.848000
     20 O6          -0.5850     1.0160     3.4750 o          1 F2R      -0.848000
     21 O7           0.3460    -0.2780     1.4390 os         1 F2R      -0.686800
     22 P2           0.9680    -1.7610     1.7480 p5         1 F2R       1.444800
     23 O8           0.6530    -2.6840     0.6120 o          1 F2R      -0.843500
     24 O9           0.6860    -2.1750     3.1580 o          1 F2R      -0.843500
     25 O10          2.5340    -1.2520     1.6290 os         1 F2R      -0.554400
     26 C10          3.5450    -2.2240     1.7540 c3         1 F2R       0.217600
     27 C11          3.9410    -2.8210     0.4120 c5         1 F2R       0.125300
     28 O11          4.2580    -1.7890    -0.5320 os         1 F2R      -0.401000
     29 C12          5.6310    -1.7400    -0.7700 c5         1 F2R       0.319300
     30 N5           6.0650    -0.3620    -0.7510 na         1 F2R      -0.277300
     31 C13          5.6590     0.6280     0.1020 cc         1 F2R       0.456700
     32 N6           6.2560     1.7640    -0.1060 nd         1 F2R      -0.586100
     33 C14          7.1080     1.5160    -1.1510 ca         1 F2R      -0.087600
     34 C15          8.0240     2.3210    -1.8520 ca         1 F2R       0.435900
     35 N7           8.2290     3.6060    -1.5580 nv         1 F2R      -1.081900
     36 N8           8.7100     1.7620    -2.8560 nb         1 F2R      -0.327000
     37 C16          8.4980     0.4820    -3.1510 ca         1 F2R       0.150900
     38 N9           7.6750    -0.3710    -2.5680 nb         1 F2R      -0.197000
     39 C17          7.0020     0.1990    -1.5700 ca         1 F2R       0.117500
     40 C18          6.2810    -2.6060     0.3110 c5         1 F2R       0.064300
     41 O12          7.5110    -3.0900    -0.1360 oh         1 F2R      -0.707000
     42 C19          5.1990    -3.6680     0.5240 c5         1 F2R       0.106300
     43 O13          5.2090    -4.6120    -0.5150 oh         1 F2R      -0.697000
     44 C20         -3.2420     4.5670     0.3610 c5         1 F2R       0.123300
     45 O14         -2.3760     5.6280     0.6250 oh         1 F2R      -0.681000
     46 C21         -4.0950     4.6900    -0.9010 c5         1 F2R       0.088300
     47 O15         -3.3100     5.1890    -1.9520 oh         1 F2R      -0.691000
     48 H1          -5.6530     2.3750    -4.6490 hn         1 F2R       0.349400
     49 H3          -5.2050     0.8300    -1.0970 hn         1 F2R       0.504000
     50 H4          -7.4930     0.0150    -2.7410 h1         1 F2R       0.040200
     51 H5          -6.0420    -0.9700    -2.7560 h1         1 F2R       0.040200
     52 H6          -6.1790    -1.1930    -0.2660 hc         1 F2R       0.044200
     53 H7          -7.6510    -0.2340    -0.2630 hc         1 F2R       0.044200
     54 H8          -8.7370    -1.9320    -1.7630 hc         1 F2R       0.038200
     55 H9          -7.2880    -2.9210    -1.6810 hc         1 F2R       0.038200
     56 H10         -9.0340    -2.1170     0.6810 h1         1 F2R       0.033700
     57 H11         -6.9300    -4.1220     0.6560 hn         1 F2R       0.391000
     58 H12         -6.7000    -2.6160     1.2210 hn         1 F2R       0.391000
     59 H15         -4.2900     3.3820    -3.1620 hn         1 F2R       0.470000
     60 H16         -5.3030     2.9700    -0.4520 h2         1 F2R       0.070700
     61 H17         -1.5450     3.5340    -0.4760 h1         1 F2R       0.083700
     62 H18         -1.5410     3.2800     2.0180 h1         1 F2R       0.016200
     63 H19         -2.9690     2.2460     1.8850 h1         1 F2R       0.016200
     64 H22          4.4050    -1.7360     2.2240 h1         1 F2R       0.008700
     65 H23          3.2550    -3.0440     2.4220 h1         1 F2R       0.008700
     66 H24          3.1030    -3.3940     0.0110 h1         1 F2R       0.149700
     67 H25          5.8870    -2.1250    -1.7640 h2         1 F2R       0.099700
     68 H26          4.8940     0.4620     0.8450 h5         1 F2R       0.117800
     69 H27          7.7430     4.0500    -0.7990 hn         1 F2R       0.497000
     70 H28          8.9130     4.1400    -2.0650 hn         1 F2R       0.497000
     71 H29          9.0820     0.0930    -3.9780 h5         1 F2R       0.026100
     72 H30          6.3900    -2.0180     1.2310 h1         1 F2R       0.057700
     73 H31          8.0220    -3.3850     0.6240 ho         1 F2R       0.495000
     74 H32          5.2840    -4.1470     1.5100 h1         1 F2R       0.048700
     75 H33          6.1170    -4.9140    -0.6320 ho         1 F2R       0.493000
     76 H34         -3.9300     4.3910     1.2010 h1         1 F2R       0.039700
     77 H35         -2.8800     6.3460     1.0200 ho         1 F2R       0.480000
     78 H36         -4.9910     5.2960    -0.7400 h1         1 F2R       0.027700
     79 H37         -3.8690     5.6970    -2.5450 ho         1 F2R       0.484000
@<TRIPOS>BOND
     1     1     2 2   
     2     1    48 1   
     3     2     3 1   
     4     2    12 1   
     5     3     4 1   
     6     3    49 1   
     7     4     5 1   
     8     4    50 1   
     9     4    51 1   
    10     5     6 1   
    11     5    52 1   
    12     5    53 1   
    13     6     7 1   
    14     6    54 1   
    15     6    55 1   
    16     7     8 1   
    17     7     9 1   
    18     7    56 1   
    19     8    57 1   
    20     8    58 1   
    21     9    10 1   
    22     9    11 1   
    23    12    13 1   
    24    12    59 1   
    25    13    14 1   
    26    13    46 1   
    27    13    60 1   
    28    14    15 1   
    29    15    16 1   
    30    15    44 1   
    31    15    61 1   
    32    16    17 1   
    33    16    62 1   
    34    16    63 1   
    35    17    18 1   
    36    18    19 1   
    37    18    20 1   
    38    18    21 1   
    39    21    22 1   
    40    22    23 1   
    41    22    24 1   
    42    22    25 1   
    43    25    26 1   
    44    26    27 1   
    45    26    64 1   
    46    26    65 1   
    47    27    28 1   
    48    27    42 1   
    49    27    66 1   
    50    28    29 1   
    51    29    30 1   
    52    29    40 1   
    53    29    67 1   
    54    30    31 1   
    55    30    39 1   
    56    31    32 2   
    57    31    68 1   
    58    32    33 1   
    59    33    34 ar  
    60    33    39 ar  
    61    34    35 1   
    62    34    36 ar  
    63    35    69 1   
    64    35    70 1   
    65    36    37 ar  
    66    37    38 ar  
    67    37    71 1   
    68    38    39 ar  
    69    40    41 1   
    70    40    42 1   
    71    40    72 1   
    72    41    73 1   
    73    42    43 1   
    74    42    74 1   
    75    43    75 1   
    76    44    45 1   
    77    44    46 1   
    78    44    76 1   
    79    45    77 1   
    80    46    47 1   
    81    46    78 1   
    82    47    79 1   
@<TRIPOS>SUBSTRUCTURE
     1 F2R         1 TEMP              0 ****  ****    0 ROOT
