@<TRIPOS>MOLECULE
F2S
   89    94     1     0     0
SMALL
No Charge or Current Charge


@<TRIPOS>ATOM
      1 C11         -2.5280    -1.7780    -0.3610 ca         1 F2S      -0.139600
      2 C12         -1.9080    -2.3520     0.7700 ca         1 F2S      -0.127000
      3 C13         -0.5420    -2.1130     1.0480 ca         1 F2S       0.078100
      4 C14          0.2290    -1.3100     0.1670 ca         1 F2S       0.311000
      5 C15         -0.3910    -0.7460    -0.9640 ca         1 F2S      -0.125000
      6 C16         -1.7490    -0.9860    -1.2330 ca         1 F2S      -0.087000
      7 C27          7.0020     1.5510    -1.7120 c          1 F2S       0.586600
      8 N1           6.1790     0.4740    -2.1630 n          1 F2S      -0.296000
      9 C28          6.4070    -0.0120    -3.5470 c3         1 F2S       0.091300
     10 C19          5.0180    -0.0590    -1.4690 ca         1 F2S      -0.124400
     11 C18          3.7920    -0.1790    -2.1590 ca         1 F2S       0.134900
     12 N4           2.6500    -0.5250    -1.5430 nb         1 F2S      -0.233000
     13 C26          6.9190     2.0960    -0.3030 ca         1 F2S      -0.169600
     14 C25          7.3400     3.4280    -0.0710 ca         1 F2S      -0.044000
     15 C24          7.3160     3.9800     1.2200 ca         1 F2S      -0.134000
     16 C23          6.8830     3.2060     2.3060 ca         1 F2S      -0.073000
     17 C22          6.4830     1.8800     2.0910 ca         1 F2S      -0.150000
     18 C21          6.5070     1.3240     0.8000 ca         1 F2S       0.343000
     19 N2           6.1210     0.0130     0.6430 na         1 F2S      -0.860100
     20 C29          7.0240    -1.0960     1.0440 c3         1 F2S       0.268500
     21 C20          4.9570    -0.2100    -0.0620 ca         1 F2S       0.422900
     22 N3           3.8060    -0.5500     0.5470 nb         1 F2S      -0.274000
     23 C17          2.7190    -0.6960    -0.2160 ca         1 F2S       0.398900
     24 N5           1.5840    -1.0870     0.4790 nu         1 F2S      -0.918900
     25 C2          -4.6010     0.3510    -1.0990 c6         1 F2S       0.090000
     26 C1          -5.7350     0.9180    -0.2130 c6         1 F2S      -0.104900
     27 C3          -6.0840    -1.4420    -1.9130 c6         1 F2S       0.090000
     28 C4          -7.2470    -0.9320    -1.0350 c6         1 F2S      -0.104900
     29 C           -7.1550     0.6040    -0.7780 c6         1 F2S       0.191500
     30 C32          6.3400    -2.1730     1.9290 c3         1 F2S      -0.082400
     31 O2           0.0800    -2.6480     2.1710 os         1 F2S      -0.363100
     32 C5          -0.6150    -3.4780     3.1200 c3         1 F2S       0.153900
     33 C6          -3.9890    -2.0740    -0.6450 c          1 F2S       0.616700
     34 O3          -4.4620    -3.1680    -0.3620 o          1 F2S      -0.595100
     35 N6          -4.7620    -1.1070    -1.3320 n          1 F2S      -0.392800
     36 N7          -8.2490     1.0920     0.1360 n3         1 F2S      -0.718600
     37 C30         -9.6260     0.7780    -0.3840 c6         1 F2S       0.163800
     38 C33        -10.7700     1.3120     0.5370 c6         1 F2S       0.162800
     39 N8         -10.6640     2.7780     0.7850 n3         1 F2S      -0.715600
     40 C35         -9.3130     3.0960     1.3280 c6         1 F2S       0.162800
     41 C36         -8.1620     2.5700     0.4110 c6         1 F2S       0.163800
     42 C37        -11.7590     3.2970     1.6320 c3         1 F2S       0.154100
     43 C7           7.7140    -1.7330    -0.1800 c3         1 F2S      -0.109100
     44 H1          -2.5080    -2.9720     1.4300 ha         1 F2S       0.133000
     45 H2           0.1650    -0.1080    -1.6400 ha         1 F2S       0.154000
     46 H3          -2.1890    -0.5600    -2.1320 ha         1 F2S       0.123000
     47 H4           7.4790    -0.1740    -3.7180 h1         1 F2S       0.047367
     48 H5           5.8890    -0.9670    -3.7060 h1         1 F2S       0.047367
     49 H6           6.0310     0.7260    -4.2660 h1         1 F2S       0.047367
     50 H7           3.7180     0.0070    -3.2300 h4         1 F2S       0.030100
     51 H8           7.6800     4.0480    -0.8990 ha         1 F2S       0.133000
     52 H9           7.6340     5.0080     1.3780 ha         1 F2S       0.121000
     53 H10          6.8630     3.6300     3.3080 ha         1 F2S       0.116000
     54 H11          6.1530     1.2770     2.9300 ha         1 F2S       0.126000
     55 H12          7.8280    -0.6590     1.6550 h1         1 F2S       0.055700
     56 H13          1.8040    -1.4000     1.4240 hn         1 F2S       0.528000
     57 H14         -4.5980     0.8690    -2.0690 h1         1 F2S       0.058950
     58 H15         -3.6460     0.5720    -0.6070 h1         1 F2S       0.058950
     59 H16         -5.6420     0.5090     0.8020 hc         1 F2S       0.056450
     60 H17         -5.5730     2.0000    -0.1360 hc         1 F2S       0.056450
     61 H18         -6.1780    -2.5280    -2.0570 h1         1 F2S       0.058950
     62 H19         -6.1560    -0.9840    -2.9100 h1         1 F2S       0.058950
     63 H20         -8.1800    -1.1910    -1.5490 hc         1 F2S       0.056450
     64 H21         -7.2490    -1.4710    -0.0780 hc         1 F2S       0.056450
     65 H22         -7.2470     1.1110    -1.7500 h1         1 F2S       0.019700
     66 H23          4.9930    -0.9130     3.1150 hc         1 F2S       0.034700
     67 H24          5.3740    -2.4750     3.8620 hc         1 F2S       0.034700
     68 H25          6.5870    -1.1770     3.8600 hc         1 F2S       0.034700
     69 H26          5.5310    -2.6550     1.3670 hc         1 F2S       0.048200
     70 H27          7.0710    -2.9610     2.1490 hc         1 F2S       0.048200
     71 H28         -1.4520    -2.9330     3.5760 h1         1 F2S       0.044033
     72 H29         -1.0040    -4.3830     2.6370 h1         1 F2S       0.044033
     73 H30          0.0650    -3.7880     3.9230 h1         1 F2S       0.044033
     74 H32         -9.7570     1.2070    -1.3880 h1         1 F2S       0.037450
     75 H33         -9.7770    -0.3060    -0.4710 h1         1 F2S       0.037450
     76 H34        -11.7360     1.0750     0.0680 h1         1 F2S       0.036950
     77 H35        -10.7340     0.7640     1.4910 h1         1 F2S       0.036950
     78 H37         -9.1970     4.1830     1.4460 h1         1 F2S       0.036950
     79 H38         -9.1930     2.6500     2.3270 h1         1 F2S       0.036950
     80 H39         -7.2210     2.8230     0.9160 h1         1 F2S       0.037450
     81 H40         -8.1840     3.1320    -0.5350 h1         1 F2S       0.037450
     82 H41        -11.7350     2.8360     2.6290 h1         1 F2S       0.030367
     83 H42        -11.6720     4.3850     1.7540 h1         1 F2S       0.030367
     84 H43        -12.7350     3.0840     1.1770 h1         1 F2S       0.030367
     85 H44          8.2630    -0.9760    -0.7520 hc         1 F2S       0.043700
     86 H45          8.4320    -2.4980     0.1370 hc         1 F2S       0.043700
     87 H46          6.9790    -2.2060    -0.8430 hc         1 F2S       0.043700
     88 O1           7.8210     2.0470    -2.4810 o          1 F2S      -0.553000
     89 C31          5.7890    -1.6490     3.2730 c3         1 F2S      -0.085100
@<TRIPOS>BOND
     1     1     2 ar  
     2     1     6 ar  
     3     1    33 1   
     4     2     3 ar  
     5     2    44 1   
     6     3     4 ar  
     7     3    31 1   
     8     4     5 ar  
     9     4    24 1   
    10     5     6 ar  
    11     5    45 1   
    12     6    46 1   
    13     7     8 1   
    14     7    13 1   
    15     7    88 2   
    16     8     9 1   
    17     8    10 1   
    18     9    47 1   
    19     9    48 1   
    20     9    49 1   
    21    10    11 ar  
    22    10    21 ar  
    23    11    12 ar  
    24    11    50 1   
    25    12    23 ar  
    26    13    14 ar  
    27    13    18 ar  
    28    14    15 ar  
    29    14    51 1   
    30    15    16 ar  
    31    15    52 1   
    32    16    17 ar  
    33    16    53 1   
    34    17    18 ar  
    35    17    54 1   
    36    18    19 1   
    37    19    20 1   
    38    19    21 1   
    39    20    30 1   
    40    20    43 1   
    41    20    55 1   
    42    21    22 ar  
    43    22    23 ar  
    44    23    24 1   
    45    24    56 1   
    46    25    26 1   
    47    25    35 1   
    48    25    57 1   
    49    25    58 1   
    50    26    29 1   
    51    26    59 1   
    52    26    60 1   
    53    27    28 1   
    54    27    35 1   
    55    27    61 1   
    56    27    62 1   
    57    28    29 1   
    58    28    63 1   
    59    28    64 1   
    60    29    36 1   
    61    29    65 1   
    62    30    69 1   
    63    30    70 1   
    64    30    89 1   
    65    31    32 1   
    66    32    71 1   
    67    32    72 1   
    68    32    73 1   
    69    33    34 2   
    70    33    35 1   
    71    36    37 1   
    72    36    41 1   
    73    37    38 1   
    74    37    74 1   
    75    37    75 1   
    76    38    39 1   
    77    38    76 1   
    78    38    77 1   
    79    39    40 1   
    80    39    42 1   
    81    40    41 1   
    82    40    78 1   
    83    40    79 1   
    84    41    80 1   
    85    41    81 1   
    86    42    82 1   
    87    42    83 1   
    88    42    84 1   
    89    43    85 1   
    90    43    86 1   
    91    43    87 1   
    92    66    89 1   
    93    67    89 1   
    94    68    89 1   
@<TRIPOS>SUBSTRUCTURE
     1 F2S         1 TEMP              0 ****  ****    0 ROOT
