@<TRIPOS>MOLECULE
F2S
   89    94     1     0     0
SMALL
abcg2


@<TRIPOS>ATOM
      1 C11         -2.5120    -1.6890    -1.1110 ca         1 F2S      -0.139600
      2 C12         -2.0390    -2.2110     0.0950 ca         1 F2S      -0.127000
      3 C13         -0.7260    -2.0150     0.4750 ca         1 F2S       0.078100
      4 C14          0.1690    -1.3170    -0.3690 ca         1 F2S       0.311000
      5 C15         -0.3080    -0.8340    -1.5830 ca         1 F2S      -0.125000
      6 C16         -1.6380    -1.0120    -1.9430 ca         1 F2S      -0.087000
      7 C27          7.0810     1.2140    -1.7460 c          1 F2S       0.586600
      8 N1           6.1580     0.3050    -2.1390 n          1 F2S      -0.296000
      9 C28          6.4220    -0.4480    -3.3600 c3         1 F2S       0.091300
     10 C19          4.9090     0.1280    -1.5180 ca         1 F2S      -0.124400
     11 C18          3.7450     0.0660    -2.2610 ca         1 F2S       0.134900
     12 N4           2.5780    -0.3140    -1.7590 nb         1 F2S      -0.233000
     13 C26          6.8890     1.9410    -0.4600 ca         1 F2S      -0.169600
     14 C25          7.3830     3.2470    -0.4090 ca         1 F2S      -0.044000
     15 C24          7.4230     3.9530     0.7770 ca         1 F2S      -0.134000
     16 C23          6.9900     3.3360     1.9460 ca         1 F2S      -0.073000
     17 C22          6.4830     2.0510     1.9080 ca         1 F2S      -0.150000
     18 C21          6.4090     1.3390     0.7090 ca         1 F2S       0.343000
     19 N2           5.8420     0.0510     0.7090 na         1 F2S      -0.860100
     20 C29          6.2900    -0.9740     1.6670 c3         1 F2S       0.268500
     21 C20          4.7760    -0.1550    -0.1510 ca         1 F2S       0.422900
     22 N3           3.6300    -0.5720     0.3420 nb         1 F2S      -0.274000
     23 C17          2.5840    -0.6660    -0.4800 ca         1 F2S       0.398900
     24 N5           1.4590    -1.1550     0.1120 nu         1 F2S      -0.918900
     25 C2          -4.4640     0.4390    -1.6100 c6         1 F2S       0.090000
     26 C1          -5.4220     0.8800    -0.5100 c6         1 F2S      -0.104900
     27 C3          -6.0380    -1.1990    -2.3940 c6         1 F2S       0.090000
     28 C4          -7.0450    -0.8310    -1.3130 c6         1 F2S      -0.104900
     29 C           -6.8890     0.6260    -0.8660 c6         1 F2S       0.191500
     30 C32          5.2530    -1.4890     2.6700 c3         1 F2S      -0.082400
     31 O2          -0.1960    -2.4530     1.6350 os         1 F2S      -0.363100
     32 C5          -1.0200    -3.1640     2.5370 c3         1 F2S       0.153900
     33 C6          -3.9230    -1.9820    -1.5030 c          1 F2S       0.616700
     34 O3          -4.3390    -3.1330    -1.4370 o          1 F2S      -0.595100
     35 N6          -4.6750    -0.9560    -1.9600 n          1 F2S      -0.392800
     36 N7          -7.7730     0.9370     0.2590 n3         1 F2S      -0.718600
     37 C30         -9.1750     0.7080    -0.0590 c6         1 F2S       0.163800
     38 C33        -10.0690     0.9870     1.1340 c6         1 F2S       0.162800
     39 N8          -9.9040     2.3440     1.6040 n3         1 F2S      -0.715600
     40 C35         -8.5150     2.5740     1.9310 c6         1 F2S       0.162800
     41 C36         -7.6170     2.3010     0.7390 c6         1 F2S       0.163800
     42 C37        -10.7760     2.6410     2.7160 c3         1 F2S       0.154100
     43 C7           6.9040    -2.1370     0.8930 c3         1 F2S      -0.109100
     44 H1          -2.7170    -2.7620     0.7330 ha         1 F2S       0.133000
     45 H2           0.3590    -0.3130    -2.2500 ha         1 F2S       0.154000
     46 H3          -1.9760    -0.6190    -2.8930 ha         1 F2S       0.123000
     47 H4           7.4520    -0.7980    -3.3700 h1         1 F2S       0.047367
     48 H5           5.7670    -1.3150    -3.3850 h1         1 F2S       0.047367
     49 H6           6.2510     0.1500    -4.2550 h1         1 F2S       0.047367
     50 H7           3.7570     0.3070    -3.3190 h4         1 F2S       0.030100
     51 H8           7.7530     3.7050    -1.3170 ha         1 F2S       0.133000
     52 H9           7.8020     4.9650     0.7970 ha         1 F2S       0.121000
     53 H10          7.0310     3.8650     2.8890 ha         1 F2S       0.116000
     54 H11          6.1230     1.5970     2.8200 ha         1 F2S       0.126000
     55 H12          7.0880    -0.4920     2.2340 h1         1 F2S       0.055700
     56 H13          1.6040    -1.4310     1.0710 hn         1 F2S       0.528000
     57 H14         -4.6120     1.0480    -2.5070 h1         1 F2S       0.058950
     58 H15         -3.4410     0.6040    -1.2840 h1         1 F2S       0.058950
     59 H16         -5.1760     0.3530     0.4180 hc         1 F2S       0.056450
     60 H17         -5.2350     1.9400    -0.3350 hc         1 F2S       0.056450
     61 H18         -6.1540    -2.2390    -2.6860 h1         1 F2S       0.058950
     62 H19         -6.2170    -0.5900    -3.2870 h1         1 F2S       0.058950
     63 H20         -8.0390    -1.0160    -1.7240 hc         1 F2S       0.056450
     64 H21         -6.9260    -1.4940    -0.4510 hc         1 F2S       0.056450
     65 H22         -7.1380     1.2690    -1.7330 h1         1 F2S       0.019700
     66 H23          3.9970     0.2650     2.8650 hc         1 F2S       0.034700
     67 H24          3.8250    -0.8990     4.1710 hc         1 F2S       0.034700
     68 H25          5.2410     0.1360     4.1160 hc         1 F2S       0.034700
     69 H26          4.5180    -2.1050     2.1530 hc         1 F2S       0.048200
     70 H27          5.7960    -2.1640     3.3390 hc         1 F2S       0.048200
     71 H28         -1.8620    -2.5580     2.8790 h1         1 F2S       0.044033
     72 H29         -1.4020    -4.0870     2.0930 h1         1 F2S       0.044033
     73 H30         -0.3970    -3.4150     3.3910 h1         1 F2S       0.044033
     74 H32         -9.5020     1.3270    -0.9120 h1         1 F2S       0.037450
     75 H33         -9.3300    -0.3320    -0.3420 h1         1 F2S       0.037450
     76 H34        -11.1090     0.8320     0.8350 h1         1 F2S       0.036950
     77 H35         -9.8510     0.2500     1.9280 h1         1 F2S       0.036950
     78 H37         -8.3830     3.6150     2.2360 h1         1 F2S       0.036950
     79 H38         -8.1860     1.9470     2.7790 h1         1 F2S       0.036950
     80 H39         -6.5920     2.4720     1.0650 h1         1 F2S       0.037450
     81 H40         -7.8300     3.0390    -0.0550 h1         1 F2S       0.037450
     82 H41        -10.5840     2.0080     3.5980 h1         1 F2S       0.030367
     83 H42        -10.6520     3.6810     3.0220 h1         1 F2S       0.030367
     84 H43        -11.8180     2.4990     2.4250 h1         1 F2S       0.030367
     85 H44          7.6830    -1.7890     0.2150 hc         1 F2S       0.043700
     86 H45          7.3490    -2.8580     1.5790 hc         1 F2S       0.043700
     87 H46          6.1480    -2.6630     0.3060 hc         1 F2S       0.043700
     88 O1           8.0710     1.4380    -2.4260 o          1 F2S      -0.553000
     89 C31          4.5450    -0.4320     3.4970 c3         1 F2S      -0.085100
@<TRIPOS>BOND
     1     1     2 ar  
     2     1     6 ar  
     3     1    33 1   
     4     2     3 ar  
     5     2    44 1   
     6     3     4 ar  
     7     3    31 1   
     8     4     5 ar  
     9     4    24 1   
    10     5     6 ar  
    11     5    45 1   
    12     6    46 1   
    13     7     8 1   
    14     7    13 1   
    15     7    88 2   
    16     8     9 1   
    17     8    10 1   
    18     9    47 1   
    19     9    48 1   
    20     9    49 1   
    21    10    11 ar  
    22    10    21 ar  
    23    11    12 ar  
    24    11    50 1   
    25    12    23 ar  
    26    13    14 ar  
    27    13    18 ar  
    28    14    15 ar  
    29    14    51 1   
    30    15    16 ar  
    31    15    52 1   
    32    16    17 ar  
    33    16    53 1   
    34    17    18 ar  
    35    17    54 1   
    36    18    19 1   
    37    19    20 1   
    38    19    21 1   
    39    20    30 1   
    40    20    43 1   
    41    20    55 1   
    42    21    22 ar  
    43    22    23 ar  
    44    23    24 1   
    45    24    56 1   
    46    25    26 1   
    47    25    35 1   
    48    25    57 1   
    49    25    58 1   
    50    26    29 1   
    51    26    59 1   
    52    26    60 1   
    53    27    28 1   
    54    27    35 1   
    55    27    61 1   
    56    27    62 1   
    57    28    29 1   
    58    28    63 1   
    59    28    64 1   
    60    29    36 1   
    61    29    65 1   
    62    30    69 1   
    63    30    70 1   
    64    30    89 1   
    65    31    32 1   
    66    32    71 1   
    67    32    72 1   
    68    32    73 1   
    69    33    34 2   
    70    33    35 1   
    71    36    37 1   
    72    36    41 1   
    73    37    38 1   
    74    37    74 1   
    75    37    75 1   
    76    38    39 1   
    77    38    76 1   
    78    38    77 1   
    79    39    40 1   
    80    39    42 1   
    81    40    41 1   
    82    40    78 1   
    83    40    79 1   
    84    41    80 1   
    85    41    81 1   
    86    42    82 1   
    87    42    83 1   
    88    42    84 1   
    89    43    85 1   
    90    43    86 1   
    91    43    87 1   
    92    66    89 1   
    93    67    89 1   
    94    68    89 1   
@<TRIPOS>SUBSTRUCTURE
     1 F2S         1 TEMP              0 ****  ****    0 ROOT
