@<TRIPOS>MOLECULE
F2U
   30    31     1     0     0
SMALL
No Charge or Current Charge


@<TRIPOS>ATOM
      1 O01         -4.1620    -2.3190     1.4340 oh         1 F2U      -0.708000
      2 C03         -3.8330    -1.5250     0.2760 c3         1 F2U       0.165600
      3 C06         -2.8540    -0.3730     0.6360 c5         1 F2U       0.170300
      4 O08         -1.5340    -0.8910     0.9130 os         1 F2U      -0.420000
      5 C09         -2.5810     0.6360    -0.5200 c5         1 F2U       0.098300
      6 O11         -3.6960     1.5070    -0.7930 oh         1 F2U      -0.685000
      7 C13         -1.3270     1.3730     0.0600 c5         1 F2U       0.110000
      8 F14         -0.5290     1.9010    -0.9590 f          1 F2U      -0.095000
      9 F15         -1.6930     2.4290     0.8980 f          1 F2U      -0.095000
     10 C16         -0.6300     0.2330     0.8960 c5         1 F2U       0.300700
     11 N18          0.7030    -0.0980     0.3070 n          1 F2U      -0.312000
     12 C19          0.8090    -0.9550    -0.8140 c          1 F2U       0.633000
     13 O20         -0.1400    -1.4120    -1.4290 o          1 F2U      -0.557000
     14 N21          2.0720    -1.2420    -1.2240 ns         1 F2U      -0.466500
     15 C23          3.2540    -0.8070    -0.7090 c          1 F2U       0.598200
     16 O24          4.3160    -1.1610    -1.1990 o          1 F2U      -0.501000
     17 C25          3.1030     0.1050     0.4540 cc         1 F2U      -0.113900
     18 C26          1.8460     0.4240     0.9180 cd         1 F2U       0.020600
     19 C28          4.2820     0.6260     1.0660 cg         1 F2U      -0.154300
     20 C29          5.2660     1.0870     1.6090 c1         1 F2U      -0.200000
     21 H1          -4.7350    -3.0590     1.1230 ho         1 F2U       0.509000
     22 H2          -3.3740    -2.1470    -0.5040 h1         1 F2U       0.040200
     23 H3          -4.7460    -1.0840    -0.1470 h1         1 F2U       0.040200
     24 H4          -3.2330     0.1490     1.5270 h1         1 F2U       0.088700
     25 H5          -2.3030     0.0820    -1.4290 h1         1 F2U       0.092700
     26 H6          -3.4020     2.1640    -1.4690 ho         1 F2U       0.524000
     27 H7          -0.4560     0.5750     1.9240 h2         1 F2U       0.090700
     28 H8           2.1410    -1.8540    -2.0210 hn         1 F2U       0.346500
     29 H9           1.6610     1.0820     1.7640 h4         1 F2U       0.216000
     30 H10          6.1390     1.4900     2.0840 ha         1 F2U       0.261000
@<TRIPOS>BOND
     1     1     2 1   
     2     1    21 1   
     3     2     3 1   
     4     2    22 1   
     5     2    23 1   
     6     3     4 1   
     7     3     5 1   
     8     3    24 1   
     9     4    10 1   
    10     5     6 1   
    11     5     7 1   
    12     5    25 1   
    13     6    26 1   
    14     7     8 1   
    15     7     9 1   
    16     7    10 1   
    17    10    11 1   
    18    10    27 1   
    19    11    12 1   
    20    11    18 1   
    21    12    13 2   
    22    12    14 1   
    23    14    15 1   
    24    14    28 1   
    25    15    16 2   
    26    15    17 1   
    27    17    18 2   
    28    17    19 1   
    29    18    29 1   
    30    19    20 3   
    31    20    30 1   
@<TRIPOS>SUBSTRUCTURE
     1 F2U         1 TEMP              0 ****  ****    0 ROOT
