@<TRIPOS>MOLECULE
F2U
   30    31     1     0     0
SMALL
bcc


@<TRIPOS>ATOM
      1 O01         -3.6490    -2.3650     1.4250 oh         1 F2U      -0.585800
      2 C03         -3.4580    -1.5850     0.2710 c3         1 F2U       0.142400
      3 C06         -2.7950    -0.2880     0.6600 c5         1 F2U       0.147100
      4 O08         -1.4660    -0.5380     1.1150 os         1 F2U      -0.373600
      5 C09         -2.6690     0.6890    -0.5080 c5         1 F2U       0.075100
      6 O11         -3.8190     1.4670    -0.6030 oh         1 F2U      -0.562800
      7 C13         -1.4090     1.4640    -0.1200 c5         1 F2U       0.352600
      8 F14         -0.6680     1.8820    -1.1710 f          1 F2U      -0.216300
      9 F15         -1.7410     2.5790     0.5760 f          1 F2U      -0.216300
     10 C16         -0.6220     0.5210     0.8190 c5         1 F2U       0.277500
     11 N18          0.6420     0.0430     0.2860 n          1 F2U      -0.379000
     12 C19          0.6600    -0.7470    -0.8540 c          1 F2U       0.842500
     13 O20         -0.3410    -1.0460    -1.4620 o          1 F2U      -0.632500
     14 N21          1.9050    -1.1630    -1.2390 ns         1 F2U      -0.600500
     15 C23          3.1250    -0.8710    -0.6570 c          1 F2U       0.740700
     16 O24          4.1600    -1.3010    -1.1160 o          1 F2U      -0.576500
     17 C25          3.0170    -0.0230     0.5210 cc         1 F2U      -0.113900
     18 C26          1.7940     0.3790     0.9290 cd         1 F2U       0.070600
     19 C28          4.1970     0.3500     1.2130 cg         1 F2U      -0.154300
     20 C29          5.2010     0.6620     1.7980 c1         1 F2U      -0.112500
     21 H1          -4.0720    -3.1870     1.1640 ho         1 F2U       0.410000
     22 H2          -2.8330    -2.0940    -0.4740 h1         1 F2U       0.040200
     23 H3          -4.4090    -1.3330    -0.2160 h1         1 F2U       0.040200
     24 H4          -3.3720     0.1940     1.4610 h1         1 F2U       0.088700
     25 H5          -2.4620     0.1440    -1.4340 h1         1 F2U       0.092700
     26 H6          -3.8860     1.8250    -1.4930 ho         1 F2U       0.425000
     27 H7          -0.3570     1.0810     1.7210 h2         1 F2U       0.090700
     28 H8           1.9270    -1.7460    -2.0670 hn         1 F2U       0.346500
     29 H9           1.6790     1.0020     1.8050 h4         1 F2U       0.166000
     30 H10          6.0860     0.9410     2.3220 ha         1 F2U       0.173500
@<TRIPOS>BOND
     1     1     2 1   
     2     1    21 1   
     3     2     3 1   
     4     2    22 1   
     5     2    23 1   
     6     3     4 1   
     7     3     5 1   
     8     3    24 1   
     9     4    10 1   
    10     5     6 1   
    11     5     7 1   
    12     5    25 1   
    13     6    26 1   
    14     7     8 1   
    15     7     9 1   
    16     7    10 1   
    17    10    11 1   
    18    10    27 1   
    19    11    12 1   
    20    11    18 1   
    21    12    13 2   
    22    12    14 1   
    23    14    15 1   
    24    14    28 1   
    25    15    16 2   
    26    15    17 1   
    27    17    18 2   
    28    17    19 1   
    29    18    29 1   
    30    19    20 3   
    31    20    30 1   
@<TRIPOS>SUBSTRUCTURE
     1 F2U         1 TEMP              0 ****  ****    0 ROOT
