@<TRIPOS>MOLECULE
F2V
   50    54     1     0     0
SMALL
abcg2


@<TRIPOS>ATOM
      1 C1          -6.5160   -17.7930    27.8120 c3         1 F2V       0.064900
      2 N1          -6.0580   -16.8820    28.8410 na         1 F2V      -0.162600
      3 C2          -6.5950   -16.8740    30.0780 cc         1 F2V       0.427700
      4 N2          -6.1600   -15.9210    30.8540 nd         1 F2V      -0.637700
      5 C3          -5.2850   -15.2300    30.0760 ca         1 F2V       0.249000
      6 C4          -5.1710   -15.8180    28.8040 ca         1 F2V      -0.241200
      7 C5          -4.2740   -15.2070    27.8900 ca         1 F2V       0.424900
      8 N3          -3.9160   -15.6300    26.6640 nh         1 F2V      -0.794300
      9 C6          -4.0170   -16.9910    26.1490 c5         1 F2V       0.227800
     10 C7          -2.9370   -17.0490    25.0770 c5         1 F2V      -0.084400
     11 C8          -2.8940   -15.6210    24.5550 c5         1 F2V      -0.092000
     12 C9          -3.0150   -14.8190    25.8520 c5         1 F2V       0.239800
     13 C10         -4.0260   -15.2730    23.5840 c5         1 F2V      -0.085400
     14 C11         -3.5410   -13.9930    22.9130 c5         1 F2V       0.223800
     15 N4          -2.0930   -14.1170    22.9520 nh         1 F2V      -0.828400
     16 C12         -1.2590   -13.2100    22.4020 ca         1 F2V       0.392000
     17 C13          0.1380   -13.4010    22.4110 ca         1 F2V      -0.212000
     18 C14          0.9770   -12.4410    21.8890 ca         1 F2V       0.221000
     19 CL1          2.6790   -12.7680    21.9380 cl         1 F2V      -0.183000
     20 C15          0.5000   -11.2550    21.3300 ca         1 F2V      -0.266300
     21 C16          1.4120   -10.2000    20.8000 c3         1 F2V       0.372300
     22 F1           0.7370    -9.1240    20.3810 f          1 F2V      -0.114000
     23 F2           2.2880    -9.7620    21.7190 f          1 F2V      -0.114000
     24 F3           2.1430   -10.6220    19.7560 f          1 F2V      -0.114000
     25 C17         -0.8840   -11.0930    21.2880 ca         1 F2V       0.000000
     26 C18         -1.7490   -12.0370    21.7970 ca         1 F2V      -0.213000
     27 C19         -1.6580   -15.2530    23.7430 c5         1 F2V       0.238800
     28 N5          -3.7070   -14.0630    28.2910 nb         1 F2V      -0.290000
     29 C20         -3.9200   -13.5890    29.5110 ca         1 F2V       0.152900
     30 N6          -4.6540   -14.1160    30.4630 nb         1 F2V      -0.152000
     31 H1          -7.3870   -18.3190    28.1950 h1         1 F2V       0.052700
     32 H2          -6.8140   -17.2490    26.9200 h1         1 F2V       0.052700
     33 H3          -5.7580   -18.5300    27.5610 h1         1 F2V       0.052700
     34 H4          -7.3340   -17.6110    30.3590 h5         1 F2V       0.062800
     35 H5          -4.9970   -17.1760    25.7040 h1         1 F2V       0.047200
     36 H6          -3.8500   -17.7270    26.9360 h1         1 F2V       0.047200
     37 H7          -3.1630   -17.7830    24.3030 hc         1 F2V       0.062200
     38 H8          -1.9740   -17.3140    25.5220 hc         1 F2V       0.062200
     39 H9          -2.0390   -14.7110    26.3360 h1         1 F2V       0.068200
     40 H10         -3.4170   -13.8150    25.7070 h1         1 F2V       0.068200
     41 H11         -4.9920   -15.1370    24.0720 hc         1 F2V       0.061200
     42 H12         -4.1380   -16.0700    22.8440 hc         1 F2V       0.061200
     43 H13         -3.8750   -13.1030    23.4560 h1         1 F2V       0.052200
     44 H14         -3.9070   -13.9040    21.8870 h1         1 F2V       0.052200
     45 H15          0.5680   -14.3040    22.8200 ha         1 F2V       0.131000
     46 H16         -1.3110   -10.2010    20.8510 ha         1 F2V       0.130000
     47 H17         -2.8120   -11.8490    21.7390 ha         1 F2V       0.121000
     48 H18         -1.3470   -16.0920    23.1080 h1         1 F2V       0.056200
     49 H19         -0.8130   -14.9970    24.3870 h1         1 F2V       0.056200
     50 H20         -3.4100   -12.6590    29.7440 h5         1 F2V       0.049100
@<TRIPOS>BOND
     1     1     2 1   
     2     1    31 1   
     3     1    32 1   
     4     1    33 1   
     5     2     3 1   
     6     2     6 1   
     7     3     4 2   
     8     3    34 1   
     9     4     5 1   
    10     5     6 ar  
    11     5    30 ar  
    12     6     7 ar  
    13     7     8 1   
    14     7    28 ar  
    15     8     9 1   
    16     8    12 1   
    17     9    10 1   
    18     9    35 1   
    19     9    36 1   
    20    10    11 1   
    21    10    37 1   
    22    10    38 1   
    23    11    12 1   
    24    11    13 1   
    25    11    27 1   
    26    12    39 1   
    27    12    40 1   
    28    13    14 1   
    29    13    41 1   
    30    13    42 1   
    31    14    15 1   
    32    14    43 1   
    33    14    44 1   
    34    15    16 1   
    35    15    27 1   
    36    16    17 ar  
    37    16    26 ar  
    38    17    18 ar  
    39    17    45 1   
    40    18    19 1   
    41    18    20 ar  
    42    20    21 1   
    43    20    25 ar  
    44    21    22 1   
    45    21    23 1   
    46    21    24 1   
    47    25    26 ar  
    48    25    46 1   
    49    26    47 1   
    50    27    48 1   
    51    27    49 1   
    52    28    29 ar  
    53    29    30 ar  
    54    29    50 1   
@<TRIPOS>SUBSTRUCTURE
     1 F2V         1 TEMP              0 ****  ****    0 ROOT
