@<TRIPOS>MOLECULE
F2V
   50    54     1     0     0
SMALL
No Charge or Current Charge


@<TRIPOS>ATOM
      1 C1          -6.7270   -16.3050    26.7790 c3         1 F2V       0.064900
      2 N1          -6.5130   -16.1000    28.2200 na         1 F2V      -0.162600
      3 C2          -7.4760   -16.0730    29.2270 cc         1 F2V       0.427700
      4 N2          -6.9310   -15.6940    30.4020 nd         1 F2V      -0.637700
      5 C3          -5.5810   -15.4810    30.1170 ca         1 F2V       0.249000
      6 C4          -5.3200   -15.7410    28.7950 ca         1 F2V      -0.241200
      7 C5          -4.0100   -15.5990    28.2970 ca         1 F2V       0.424900
      8 N3          -3.6310   -15.8870    26.9770 nh         1 F2V      -0.794300
      9 C6          -3.4140   -17.2900    26.5200 c5         1 F2V       0.227800
     10 C7          -2.2230   -17.1490    25.5350 c5         1 F2V      -0.084400
     11 C8          -2.5290   -15.7650    24.9070 c5         1 F2V      -0.092000
     12 C9          -2.9220   -14.8860    26.1280 c5         1 F2V       0.239800
     13 C10         -3.6570   -15.8280    23.8350 c5         1 F2V      -0.085400
     14 C11         -3.4800   -14.4520    23.1360 c5         1 F2V       0.223800
     15 N4          -2.0040   -14.2200    23.2200 nh         1 F2V      -0.828400
     16 C12         -1.3270   -13.2080    22.4950 ca         1 F2V       0.392000
     17 C13          0.0690   -13.2340    22.3600 ca         1 F2V      -0.212000
     18 C14          0.7430   -12.2350    21.6450 ca         1 F2V       0.221000
     19 Cl1          2.5000   -12.3600    21.5310 cl         1 F2V      -0.183000
     20 C15          0.0290   -11.1750    21.0410 ca         1 F2V      -0.266300
     21 C16          0.7570   -10.0750    20.2550 c3         1 F2V       0.372300
     22 F1          -0.0840    -9.1440    19.7490 f          1 F2V      -0.114000
     23 F2           1.6420    -9.4070    21.0290 f          1 F2V      -0.114000
     24 F3           1.4420   -10.5790    19.2040 f          1 F2V      -0.114000
     25 C17         -1.3760   -11.1500    21.1770 ca         1 F2V       0.000000
     26 C18         -2.0400   -12.1560    21.8950 ca         1 F2V      -0.213000
     27 C19         -1.3200   -15.1710    24.1450 c5         1 F2V       0.238800
     28 N5          -3.0280   -15.1840    29.1240 nb         1 F2V      -0.290000
     29 C20         -3.3770   -14.9420    30.4090 ca         1 F2V       0.152900
     30 N6          -4.6080   -15.0750    30.9540 nb         1 F2V      -0.152000
     31 H1          -7.7940   -16.1970    26.5460 h1         1 F2V       0.052700
     32 H2          -6.1640   -15.5600    26.2050 h1         1 F2V       0.052700
     33 H3          -6.4050   -17.3140    26.4980 h1         1 F2V       0.052700
     34 H4          -8.5180   -16.3060    29.0420 h5         1 F2V       0.062800
     35 H5          -4.3020   -17.6860    26.0110 h1         1 F2V       0.047200
     36 H6          -3.1680   -17.9660    27.3510 h1         1 F2V       0.047200
     37 H7          -2.1780   -17.9660    24.8060 hc         1 F2V       0.062200
     38 H8          -1.2710   -17.1390    26.0790 hc         1 F2V       0.062200
     39 H9          -2.0310   -14.4980    26.6410 h1         1 F2V       0.068200
     40 H10         -3.5610   -14.0340    25.8590 h1         1 F2V       0.068200
     41 H11         -4.6630   -15.9570    24.2480 hc         1 F2V       0.061200
     42 H12         -3.4860   -16.6430    23.1230 hc         1 F2V       0.061200
     43 H13         -4.0340   -13.6630    23.6640 h1         1 F2V       0.052200
     44 H14         -3.8390   -14.4870    22.0980 h1         1 F2V       0.052200
     45 H15          0.6490   -14.0350    22.8030 ha         1 F2V       0.131000
     46 H16         -1.9680   -10.3530    20.7310 ha         1 F2V       0.130000
     47 H17         -3.1190   -12.1020    21.9860 ha         1 F2V       0.121000
     48 H18         -0.7840   -15.9470    23.5800 h1         1 F2V       0.056200
     49 H19         -0.6080   -14.6750    24.8200 h1         1 F2V       0.056200
     50 H20         -2.5840   -14.6100    31.0760 h5         1 F2V       0.049100
@<TRIPOS>BOND
     1     1     2 1   
     2     1    31 1   
     3     1    32 1   
     4     1    33 1   
     5     2     3 1   
     6     2     6 1   
     7     3     4 2   
     8     3    34 1   
     9     4     5 1   
    10     5     6 ar  
    11     5    30 ar  
    12     6     7 ar  
    13     7     8 1   
    14     7    28 ar  
    15     8     9 1   
    16     8    12 1   
    17     9    10 1   
    18     9    35 1   
    19     9    36 1   
    20    10    11 1   
    21    10    37 1   
    22    10    38 1   
    23    11    12 1   
    24    11    13 1   
    25    11    27 1   
    26    12    39 1   
    27    12    40 1   
    28    13    14 1   
    29    13    41 1   
    30    13    42 1   
    31    14    15 1   
    32    14    43 1   
    33    14    44 1   
    34    15    16 1   
    35    15    27 1   
    36    16    17 ar  
    37    16    26 ar  
    38    17    18 ar  
    39    17    45 1   
    40    18    19 1   
    41    18    20 ar  
    42    20    21 1   
    43    20    25 ar  
    44    21    22 1   
    45    21    23 1   
    46    21    24 1   
    47    25    26 ar  
    48    25    46 1   
    49    26    47 1   
    50    27    48 1   
    51    27    49 1   
    52    28    29 ar  
    53    29    30 ar  
    54    29    50 1   
@<TRIPOS>SUBSTRUCTURE
     1 F2V         1 TEMP              0 ****  ****    0 ROOT
