@<TRIPOS>MOLECULE
F2W
   33    34     1     0     0
SMALL
abcg2


@<TRIPOS>ATOM
      1 CAM         -3.2880     2.4140     0.0580 c3         1 F2W       0.135900
      2 OAK         -3.0410     1.0220     0.0270 os         1 F2W      -0.299100
      3 CAB         -1.7660     0.6030     0.0030 ca         1 F2W       0.161100
      4 CAA         -0.6570     1.4250    -0.0000 ca         1 F2W      -0.167000
      5 CAF          0.6390     0.8980    -0.0300 ca         1 F2W      -0.080300
      6 CAJ          1.8240     1.8240    -0.0150 c6         1 F2W      -0.054100
      7 CAI          3.0960     1.1280    -0.4430 c6         1 F2W       0.102600
      8 NAH          3.2440    -0.1600     0.2960 nx         1 F2W      -0.656000
      9 CAO          4.5830    -0.7610     0.0940 c3         1 F2W       0.072900
     10 CAG          2.1670    -1.1090    -0.0910 c6         1 F2W       0.161900
     11 CAE          0.8080    -0.4720    -0.0430 ca         1 F2W      -0.148300
     12 CAD         -0.3080    -1.3160    -0.0400 ca         1 F2W      -0.159000
     13 CAC         -1.5870    -0.7990    -0.0230 ca         1 F2W       0.144100
     14 OAL         -2.7160    -1.5290    -0.0250 os         1 F2W      -0.300100
     15 CAN         -2.6000    -2.9370    -0.0600 c3         1 F2W       0.137900
     16 H1          -4.3680     2.5350     0.0790 h1         1 F2W       0.053367
     17 H2          -2.8640     2.8840     0.9490 h1         1 F2W       0.053367
     18 H3          -2.8940     2.9190    -0.8280 h1         1 F2W       0.053367
     19 H4          -0.7710     2.5020     0.0170 ha         1 F2W       0.136000
     20 H5           1.6620     2.6670    -0.6880 hc         1 F2W       0.089200
     21 H6           1.9560     2.2520     0.9840 hc         1 F2W       0.089200
     22 H7           3.0910     0.8790    -1.5040 hx         1 F2W       0.098700
     23 H8           3.9730     1.7360    -0.2290 hx         1 F2W       0.098700
     24 H9           3.1480     0.0380     1.2940 hn         1 F2W       0.505000
     25 H10          4.7220    -0.9560    -0.9660 hx         1 F2W       0.099033
     26 H11          5.3360    -0.0640     0.4480 hx         1 F2W       0.099033
     27 H12          4.6420    -1.6880     0.6570 hx         1 F2W       0.099033
     28 H13          2.4120    -1.4590    -1.0970 hx         1 F2W       0.095700
     29 H14          2.2290    -1.9600     0.5860 hx         1 F2W       0.095700
     30 H15         -0.1510    -2.3870    -0.0500 ha         1 F2W       0.130000
     31 H16         -3.6130    -3.3300    -0.0640 h1         1 F2W       0.051367
     32 H17         -2.0830    -3.2810    -0.9600 h1         1 F2W       0.051367
     33 H18         -2.0750    -3.3240     0.8170 h1         1 F2W       0.051367
@<TRIPOS>BOND
     1     1     2 1   
     2     1    16 1   
     3     1    17 1   
     4     1    18 1   
     5     2     3 1   
     6     3     4 ar  
     7     3    13 ar  
     8     4     5 ar  
     9     4    19 1   
    10     5     6 1   
    11     5    11 ar  
    12     6     7 1   
    13     6    20 1   
    14     6    21 1   
    15     7     8 1   
    16     7    22 1   
    17     7    23 1   
    18     8     9 1   
    19     8    10 1   
    20     8    24 1   
    21     9    25 1   
    22     9    26 1   
    23     9    27 1   
    24    10    11 1   
    25    10    28 1   
    26    10    29 1   
    27    11    12 ar  
    28    12    13 ar  
    29    12    30 1   
    30    13    14 1   
    31    14    15 1   
    32    15    31 1   
    33    15    32 1   
    34    15    33 1   
@<TRIPOS>SUBSTRUCTURE
     1 F2W         1 TEMP              0 ****  ****    0 ROOT
