@<TRIPOS>MOLECULE
F2W
   33    34     1     0     0
SMALL
No Charge or Current Charge


@<TRIPOS>ATOM
      1 CAM         -3.3600     2.5140     0.1240 c3         1 F2W       0.135900
      2 OAK         -3.0840     1.1030     0.0850 os         1 F2W      -0.299100
      3 CAB         -1.7950     0.5970     0.0120 ca         1 F2W       0.161100
      4 CAA         -0.6630     1.4420    -0.0280 ca         1 F2W      -0.167000
      5 CAF          0.6330     0.9010    -0.1050 ca         1 F2W      -0.080300
      6 CAJ          1.8360     1.8530    -0.1170 c6         1 F2W      -0.054100
      7 CAI          3.1720     1.1610    -0.4550 c6         1 F2W       0.102600
      8 NAH          3.2710    -0.1710     0.2870 nx         1 F2W      -0.656000
      9 CAO          4.6770    -0.7790     0.2330 c3         1 F2W       0.072900
     10 CAG          2.1980    -1.1250    -0.2320 c6         1 F2W       0.161900
     11 CAE          0.8060    -0.5010    -0.1340 ca         1 F2W      -0.148300
     12 CAD         -0.3180    -1.3470    -0.0950 ca         1 F2W      -0.159000
     13 CAC         -1.6220    -0.8060    -0.0220 ca         1 F2W       0.144100
     14 OAL         -2.7480    -1.6150     0.0170 os         1 F2W      -0.300100
     15 CAN         -2.6710    -3.0510    -0.0120 c3         1 F2W       0.137900
     16 H1          -4.4420     2.6880     0.1800 h1         1 F2W       0.053367
     17 H2          -2.8960     2.9800     1.0030 h1         1 F2W       0.053367
     18 H3          -2.9840     3.0110    -0.7790 h1         1 F2W       0.053367
     19 H4          -0.7730     2.5220     0.0030 ha         1 F2W       0.136000
     20 H5           1.6660     2.6720    -0.8290 hc         1 F2W       0.089200
     21 H6           1.9220     2.3230     0.8710 hc         1 F2W       0.089200
     22 H7           3.2450     0.9470    -1.5260 hx         1 F2W       0.098700
     23 H8           4.0250     1.7880    -0.1730 hx         1 F2W       0.098700
     24 H9           3.0490     0.0130     1.2920 hn         1 F2W       0.505000
     25 H10          4.9430    -0.9900    -0.8060 hx         1 F2W       0.099033
     26 H11          5.4000    -0.0760     0.6540 hx         1 F2W       0.099033
     27 H12          4.7000    -1.7090     0.8070 hx         1 F2W       0.099033
     28 H13          2.4390    -1.3650    -1.2720 hx         1 F2W       0.095700
     29 H14          2.2540    -2.0500     0.3520 hx         1 F2W       0.095700
     30 H15         -0.1610    -2.4210    -0.1250 ha         1 F2W       0.130000
     31 H16         -3.6770    -3.4860     0.0290 h1         1 F2W       0.051367
     32 H17         -2.1890    -3.3980    -0.9350 h1         1 F2W       0.051367
     33 H18         -2.1030    -3.4290     0.8470 h1         1 F2W       0.051367
@<TRIPOS>BOND
     1     1     2 1   
     2     1    16 1   
     3     1    17 1   
     4     1    18 1   
     5     2     3 1   
     6     3     4 ar  
     7     3    13 ar  
     8     4     5 ar  
     9     4    19 1   
    10     5     6 1   
    11     5    11 ar  
    12     6     7 1   
    13     6    20 1   
    14     6    21 1   
    15     7     8 1   
    16     7    22 1   
    17     7    23 1   
    18     8     9 1   
    19     8    10 1   
    20     8    24 1   
    21     9    25 1   
    22     9    26 1   
    23     9    27 1   
    24    10    11 1   
    25    10    28 1   
    26    10    29 1   
    27    11    12 ar  
    28    12    13 ar  
    29    12    30 1   
    30    13    14 1   
    31    14    15 1   
    32    15    31 1   
    33    15    32 1   
    34    15    33 1   
@<TRIPOS>SUBSTRUCTURE
     1 F2W         1 TEMP              0 ****  ****    0 ROOT
