@<TRIPOS>MOLECULE
F2X
   24    25     1     0     0
SMALL
No Charge or Current Charge


@<TRIPOS>ATOM
      1 O2         -51.6020    37.9750   -26.0210 o          1 F2X      -0.503100
      2 C4         -50.6930    38.4270   -25.3330 c          1 F2X       0.577700
      3 C3         -49.2810    37.7890   -25.3190 c6         1 F2X      -0.152700
      4 C11        -49.2220    36.4140   -26.0470 c3         1 F2X      -0.079100
      5 C7         -48.7190    37.7340   -23.8740 c6         1 F2X      -0.166400
      6 C5         -48.7130    39.1140   -23.2110 c          1 F2X       0.603700
      7 O3         -47.7510    39.5010   -22.5570 o          1 F2X      -0.565100
      8 C1         -50.8890    39.6320   -24.4270 ca         1 F2X      -0.089600
      9 C2         -49.9310    39.9810   -23.4280 ca         1 F2X      -0.275600
     10 C8         -52.0420    40.4350   -24.5850 ca         1 F2X      -0.116000
     11 C10        -52.2430    41.5690   -23.7860 ca         1 F2X      -0.049000
     12 C9         -51.2910    41.9190   -22.8200 ca         1 F2X      -0.154000
     13 C6         -50.1430    41.1360   -22.6410 ca         1 F2X       0.217100
     14 O1         -49.2430    41.5130   -21.6930 oh         1 F2X      -0.539100
     15 H1         -48.6310    38.4970   -25.8530 hc         1 F2X       0.076700
     16 H2         -48.2020    36.0100   -26.0470 hc         1 F2X       0.046367
     17 H3         -49.8710    35.6760   -25.5600 hc         1 F2X       0.046367
     18 H4         -49.5380    36.5010   -27.0940 hc         1 F2X       0.046367
     19 H5         -49.4220    37.1200   -23.2930 hc         1 F2X       0.081200
     20 H6         -47.7210    37.2810   -23.8110 hc         1 F2X       0.081200
     21 H7         -52.7860    40.1840   -25.3390 ha         1 F2X       0.139000
     22 H8         -53.1340    42.1800   -23.9210 ha         1 F2X       0.122000
     23 H9         -51.4430    42.8030   -22.2050 ha         1 F2X       0.137000
     24 H10        -48.4740    40.8940   -21.7760 ho         1 F2X       0.516000
@<TRIPOS>BOND
     1     1     2 2   
     2     2     3 1   
     3     2     8 1   
     4     3     4 1   
     5     3     5 1   
     6     3    15 1   
     7     4    16 1   
     8     4    17 1   
     9     4    18 1   
    10     5     6 1   
    11     5    19 1   
    12     5    20 1   
    13     6     7 2   
    14     6     9 1   
    15     8     9 ar  
    16     8    10 ar  
    17     9    13 ar  
    18    10    11 ar  
    19    10    21 1   
    20    11    12 ar  
    21    11    22 1   
    22    12    13 ar  
    23    12    23 1   
    24    13    14 1   
    25    14    24 1   
@<TRIPOS>SUBSTRUCTURE
     1 F2X         1 TEMP              0 ****  ****    0 ROOT
