@<TRIPOS>MOLECULE
F2X
   24    25     1     0     0
SMALL
bcc


@<TRIPOS>ATOM
      1 O2         -51.6490    37.9080   -25.8640 o          1 F2X      -0.503100
      2 C4         -50.7220    38.3810   -25.2460 c          1 F2X       0.577700
      3 C3         -49.3210    37.8320   -25.3170 c6         1 F2X      -0.152700
      4 C11        -49.2340    36.4980   -26.0360 c3         1 F2X      -0.079100
      5 C7         -48.7290    37.7630   -23.9070 c6         1 F2X      -0.166400
      6 C5         -48.7940    39.0660   -23.1700 c          1 F2X       0.603700
      7 O3         -47.9370    39.3680   -22.3460 o          1 F2X      -0.565100
      8 C1         -50.9050    39.5930   -24.3960 ca         1 F2X      -0.089600
      9 C2         -49.9380    39.9410   -23.4320 ca         1 F2X      -0.275600
     10 C8         -52.0190    40.3870   -24.5910 ca         1 F2X      -0.134000
     11 C10        -52.1700    41.5500   -23.8390 ca         1 F2X      -0.067000
     12 C9         -51.2320    41.9190   -22.8980 ca         1 F2X      -0.172000
     13 C6         -50.1060    41.1190   -22.6800 ca         1 F2X       0.217100
     14 O1         -49.2360    41.5040   -21.7540 oh         1 F2X      -0.500100
     15 H1         -48.7430    38.5770   -25.8800 hc         1 F2X       0.076700
     16 H2         -48.1970    36.1650   -26.0740 hc         1 F2X       0.046367
     17 H3         -49.8140    35.7290   -25.5240 hc         1 F2X       0.046367
     18 H4         -49.5960    36.5720   -27.0600 hc         1 F2X       0.046367
     19 H5         -49.2840    37.0260   -23.3130 hc         1 F2X       0.081200
     20 H6         -47.6940    37.4230   -23.9450 hc         1 F2X       0.081200
     21 H7         -52.7580    40.1210   -25.3330 ha         1 F2X       0.157000
     22 H8         -53.0340    42.1820   -23.9970 ha         1 F2X       0.140000
     23 H9         -51.3560    42.8250   -22.3190 ha         1 F2X       0.155000
     24 H10        -48.5150    40.8360   -21.7180 ho         1 F2X       0.477000
@<TRIPOS>BOND
     1     1     2 2   
     2     2     3 1   
     3     2     8 1   
     4     3     4 1   
     5     3     5 1   
     6     3    15 1   
     7     4    16 1   
     8     4    17 1   
     9     4    18 1   
    10     5     6 1   
    11     5    19 1   
    12     5    20 1   
    13     6     7 2   
    14     6     9 1   
    15     8     9 ar  
    16     8    10 ar  
    17     9    13 ar  
    18    10    11 ar  
    19    10    21 1   
    20    11    12 ar  
    21    11    22 1   
    22    12    13 ar  
    23    12    23 1   
    24    13    14 1   
    25    14    24 1   
@<TRIPOS>SUBSTRUCTURE
     1 F2X         1 TEMP              0 ****  ****    0 ROOT
