@<TRIPOS>MOLECULE
F2Y
   23    23     1     0     0
SMALL
abcg2


@<TRIPOS>ATOM
      1 OXT         23.6160    38.2340    -5.5750 o          1 F2Y      -0.728500
      2 C           23.7130    37.6270    -6.6620 c          1 F2Y       0.694000
      3 O           23.9600    36.4170    -6.8240 o          1 F2Y      -0.728500
      4 CA          23.4850    38.4900    -7.9360 c3         1 F2Y       0.014500
      5 N           23.7570    37.8310    -9.2020 n8         1 F2Y      -1.000200
      6 CB          22.0470    39.0330    -7.9270 c3         1 F2Y      -0.021100
      7 CG          21.7940    40.0640    -8.9880 ca         1 F2Y      -0.011300
      8 CD1         21.2870    39.7150   -10.2370 ca         1 F2Y      -0.124000
      9 CE1         21.0900    40.6830   -11.1980 ca         1 F2Y       0.118500
     10 F1          20.6040    40.3390   -12.4010 f          1 F2Y      -0.190500
     11 CD2         22.0900    41.4010    -8.7450 ca         1 F2Y      -0.124000
     12 CE2         21.8810    42.3430    -9.7300 ca         1 F2Y       0.118500
     13 F2          22.1640    43.6370    -9.4860 f          1 F2Y      -0.190500
     14 CZ          21.3770    42.0260   -10.9850 ca         1 F2Y       0.031100
     15 OH          21.1550    42.9100   -11.9730 oh         1 F2Y      -0.525100
     16 H2          24.1560    39.3540    -7.8650 h1         1 F2Y       0.041700
     17 H3          24.7400    37.5920    -9.2390 hn         1 F2Y       0.384500
     18 H4          23.2790    36.9370    -9.1980 hn         1 F2Y       0.384500
     19 H6          21.8490    39.4680    -6.9470 hc         1 F2Y       0.055200
     20 H7          21.3510    38.1970    -8.0500 hc         1 F2Y       0.055200
     21 H8          21.0400    38.6870   -10.4650 ha         1 F2Y       0.139500
     22 H9          22.4830    41.7170    -7.7860 ha         1 F2Y       0.139500
     23 H10         21.3760    43.8060   -11.6910 ho         1 F2Y       0.465000
@<TRIPOS>BOND
     1     1     2 1   
     2     2     3 1   
     3     2     4 1   
     4     4     5 1   
     5     4     6 1   
     6     4    16 1   
     7     5    17 1   
     8     5    18 1   
     9     6     7 1   
    10     6    19 1   
    11     6    20 1   
    12     7     8 ar  
    13     7    11 ar  
    14     8     9 ar  
    15     8    21 1   
    16     9    10 1   
    17     9    14 ar  
    18    11    12 ar  
    19    11    22 1   
    20    12    13 1   
    21    12    14 ar  
    22    14    15 1   
    23    15    23 1   
@<TRIPOS>SUBSTRUCTURE
     1 F2Y         1 TEMP              0 ****  ****    0 ROOT
