@<TRIPOS>MOLECULE
F2Y
   23    23     1     0     0
SMALL
No Charge or Current Charge


@<TRIPOS>ATOM
      1 OXT         24.2010    38.0960    -5.5730 o          1 F2Y      -0.728500
      2 C           23.6530    37.6230    -6.5590 c          1 F2Y       0.694000
      3 O           23.3300    36.4440    -6.6420 o          1 F2Y      -0.728500
      4 CA          23.4850    38.5420    -7.8370 c3         1 F2Y       0.014500
      5 N           24.0610    38.0010    -9.1250 n8         1 F2Y      -1.000200
      6 CB          21.9930    38.9340    -8.0150 c3         1 F2Y      -0.021100
      7 CG          21.7570    40.0120    -9.0710 ca         1 F2Y      -0.011300
      8 CD1         21.1040    39.7000   -10.2800 ca         1 F2Y      -0.124000
      9 CE1         20.8810    40.6970   -11.2460 ca         1 F2Y       0.118500
     10 F1          20.2530    40.3670   -12.3990 f          1 F2Y      -0.190500
     11 CD2         22.1770    41.3360    -8.8380 ca         1 F2Y      -0.124000
     12 CE2         21.9530    42.3320    -9.8030 ca         1 F2Y       0.118500
     13 F2          22.3660    43.5970    -9.5590 f          1 F2Y      -0.190500
     14 CZ          21.3040    42.0240   -11.0170 ca         1 F2Y       0.031100
     15 OH          21.0880    43.0040   -11.9570 oh         1 F2Y      -0.525100
     16 H2          24.0350    39.4670    -7.6170 h1         1 F2Y       0.041700
     17 H3          25.0620    37.8110    -8.9900 hn         1 F2Y       0.384500
     18 H4          23.6690    37.0650    -9.2860 hn         1 F2Y       0.384500
     19 H6          21.6120    39.2930    -7.0510 hc         1 F2Y       0.055200
     20 H7          21.4100    38.0340    -8.2460 hc         1 F2Y       0.055200
     21 H8          20.7720    38.6840   -10.4770 ha         1 F2Y       0.139500
     22 H9          22.6770    41.5960    -7.9090 ha         1 F2Y       0.139500
     23 H10         21.4520    43.8500   -11.6120 ho         1 F2Y       0.465000
@<TRIPOS>BOND
     1     1     2 1   
     2     2     3 1   
     3     2     4 1   
     4     4     5 1   
     5     4     6 1   
     6     4    16 1   
     7     5    17 1   
     8     5    18 1   
     9     6     7 1   
    10     6    19 1   
    11     6    20 1   
    12     7     8 ar  
    13     7    11 ar  
    14     8     9 ar  
    15     8    21 1   
    16     9    10 1   
    17     9    14 ar  
    18    11    12 ar  
    19    11    22 1   
    20    12    13 1   
    21    12    14 ar  
    22    14    15 1   
    23    15    23 1   
@<TRIPOS>SUBSTRUCTURE
     1 F2Y         1 TEMP              0 ****  ****    0 ROOT
