@<TRIPOS>MOLECULE
F2Z
   28    29     1     0     0
SMALL
No Charge or Current Charge


@<TRIPOS>ATOM
      1 CAB          2.6530     2.9870     0.1270 c3         1 F2Z       0.143900
      2 OAJ          2.6870     1.5490     0.1420 os         1 F2Z      -0.319100
      3 CAO          1.5470     0.7750    -0.0090 ca         1 F2Z       0.120100
      4 CAE          0.2720     1.3580    -0.1890 ca         1 F2Z      -0.163000
      5 CAM         -0.8600     0.5390    -0.3370 ca         1 F2Z      -0.063300
      6 CAG         -2.2540     1.1250    -0.5450 c6         1 F2Z      -0.116100
      7 CAK         -3.2310     0.2960     0.2960 c          1 F2Z       0.570000
      8 OAC         -3.9310     0.7730     1.1750 o          1 F2Z      -0.568000
      9 NAH         -3.1730    -1.0610     0.0910 ns         1 F2Z      -0.506900
     10 CAF         -1.9930    -1.7380    -0.4740 c6         1 F2Z       0.163300
     11 CAL         -0.7360    -0.8640    -0.3120 ca         1 F2Z      -0.102300
     12 CAD          0.5310    -1.4500    -0.1350 ca         1 F2Z      -0.159000
     13 CAN          1.6780    -0.6350     0.0180 ca         1 F2Z       0.115100
     14 OAI          2.9400    -1.1800     0.1960 os         1 F2Z      -0.319100
     15 CAA          3.1710    -2.5990     0.2380 c3         1 F2Z       0.144900
     16 HAE          2.2650     3.3590    -0.8290 h1         1 F2Z       0.041367
     17 HAF          2.0220     3.3710     0.9390 h1         1 F2Z       0.041367
     18 HAD          3.6640     3.3920     0.2640 h1         1 F2Z       0.041367
     19 HAH          0.1440     2.4360    -0.2180 ha         1 F2Z       0.123000
     20 HAL         -2.3220     2.1890    -0.2880 hc         1 F2Z       0.077700
     21 HAK         -2.4960     0.9600    -1.6030 hc         1 F2Z       0.077700
     22 HAM         -3.8190    -1.6160     0.6390 hn         1 F2Z       0.319500
     23 HAJ         -1.8550    -2.7000     0.0410 h1         1 F2Z       0.047700
     24 HAI         -2.1720    -1.9390    -1.5400 h1         1 F2Z       0.047700
     25 HAG          0.6050    -2.5330    -0.1170 ha         1 F2Z       0.119000
     26 HAC          4.2380    -2.8060     0.3860 h1         1 F2Z       0.040033
     27 HAA          2.6170    -3.0610     1.0650 h1         1 F2Z       0.040033
     28 HAB          2.8610    -3.0730    -0.7030 h1         1 F2Z       0.040033
@<TRIPOS>BOND
     1     1     2 1   
     2     1    16 1   
     3     1    17 1   
     4     1    18 1   
     5     2     3 1   
     6     3     4 ar  
     7     3    13 ar  
     8     4     5 ar  
     9     4    19 1   
    10     5     6 1   
    11     5    11 ar  
    12     6     7 1   
    13     6    20 1   
    14     6    21 1   
    15     7     8 2   
    16     7     9 1   
    17     9    10 1   
    18     9    22 1   
    19    10    11 1   
    20    10    23 1   
    21    10    24 1   
    22    11    12 ar  
    23    12    13 ar  
    24    12    25 1   
    25    13    14 1   
    26    14    15 1   
    27    15    26 1   
    28    15    27 1   
    29    15    28 1   
@<TRIPOS>SUBSTRUCTURE
     1 F2Z         1 TEMP              0 ****  ****    0 ROOT
