@<TRIPOS>MOLECULE
F2Z
   28    29     1     0     0
SMALL
bcc


@<TRIPOS>ATOM
      1 CAB          2.6290     2.8660     0.0880 c3         1 F2Z       0.120700
      2 OAJ          2.7010     1.4550     0.1060 os         1 F2Z      -0.295900
      3 CAO          1.5550     0.7590    -0.0150 ca         1 F2Z       0.120100
      4 CAE          0.2960     1.3190    -0.1440 ca         1 F2Z      -0.181000
      5 CAM         -0.8370     0.5120    -0.2610 ca         1 F2Z      -0.063300
      6 CAG         -2.2040     1.1050    -0.4410 c6         1 F2Z      -0.116100
      7 CAK         -3.3050     0.2790     0.1870 c          1 F2Z       0.712500
      8 OAC         -4.3300     0.7880     0.6210 o          1 F2Z      -0.643500
      9 NAH         -3.0800    -1.0430     0.2200 ns         1 F2Z      -0.573900
     10 CAF         -1.9350    -1.7040    -0.3750 c6         1 F2Z       0.163300
     11 CAL         -0.7020    -0.8610    -0.2370 ca         1 F2Z      -0.102300
     12 CAD          0.5620    -1.4380    -0.1030 ca         1 F2Z      -0.177000
     13 CAN          1.6910    -0.6450     0.0030 ca         1 F2Z       0.115100
     14 OAI          2.9490    -1.1060     0.1360 os         1 F2Z      -0.295900
     15 CAA          3.1450    -2.5040     0.1850 c3         1 F2Z       0.121700
     16 HAE          2.2150     3.2420    -0.8520 h1         1 F2Z       0.041367
     17 HAF          2.0310     3.2570     0.9160 h1         1 F2Z       0.041367
     18 HAD          3.6490     3.2280     0.1920 h1         1 F2Z       0.041367
     19 HAH          0.1720     2.3950    -0.1520 ha         1 F2Z       0.141000
     20 HAL         -2.2590     2.1160    -0.0390 hc         1 F2Z       0.077700
     21 HAK         -2.4360     1.1890    -1.5100 hc         1 F2Z       0.077700
     22 HAM         -3.8210    -1.6280     0.5740 hn         1 F2Z       0.319500
     23 HAJ         -1.8030    -2.6630     0.1250 h1         1 F2Z       0.047700
     24 HAI         -2.1260    -1.9250    -1.4320 h1         1 F2Z       0.047700
     25 HAG          0.6430    -2.5170    -0.0780 ha         1 F2Z       0.137000
     26 HAC          4.2140    -2.6630     0.3010 h1         1 F2Z       0.040033
     27 HAA          2.6270    -2.9590     1.0340 h1         1 F2Z       0.040033
     28 HAB          2.8130    -2.9970    -0.7330 h1         1 F2Z       0.040033
@<TRIPOS>BOND
     1     1     2 1   
     2     1    16 1   
     3     1    17 1   
     4     1    18 1   
     5     2     3 1   
     6     3     4 ar  
     7     3    13 ar  
     8     4     5 ar  
     9     4    19 1   
    10     5     6 1   
    11     5    11 ar  
    12     6     7 1   
    13     6    20 1   
    14     6    21 1   
    15     7     8 2   
    16     7     9 1   
    17     9    10 1   
    18     9    22 1   
    19    10    11 1   
    20    10    23 1   
    21    10    24 1   
    22    11    12 ar  
    23    12    13 ar  
    24    12    25 1   
    25    13    14 1   
    26    14    15 1   
    27    15    26 1   
    28    15    27 1   
    29    15    28 1   
@<TRIPOS>SUBSTRUCTURE
     1 F2Z         1 TEMP              0 ****  ****    0 ROOT
