@<TRIPOS>MOLECULE
F30
   35    38     1     0     0
SMALL
bcc


@<TRIPOS>ATOM
      1 C10         59.0620    -2.4820    33.0150 ca         1 F30      -0.092800
      2 C15         59.0550    -8.8030    35.4400 ca         1 F30      -0.106000
      3 C17         60.3270   -10.5980    36.4580 ca         1 F30      -0.147000
      4 C20         57.8760   -10.8280    36.1360 cc         1 F30       0.454000
      5 BR01        56.6440    -0.8500    33.3510 br         1 F30      -0.034700
      6 C02         58.3840    -1.2420    32.8190 cc         1 F30      -0.101500
      7 C03         59.2350    -0.3960    32.1730 cd         1 F30      -0.074100
      8 N04         60.4140    -1.0450    31.9520 na         1 F30      -0.162400
      9 C05         60.3450    -2.3090    32.4490 ca         1 F30      -0.030200
     10 C06         61.2900    -3.3330    32.4520 ca         1 F30      -0.150000
     11 C07         60.9360    -4.5270    33.0400 ca         1 F30      -0.089000
     12 C08         59.6630    -4.7210    33.6200 ca         1 F30      -0.190600
     13 C09         58.7230    -3.7020    33.5930 ca         1 F30      -0.002000
     14 C11         59.2500    -6.0130    34.2390 c          1 F30       0.692700
     15 O12         58.0780    -6.3380    34.3100 o          1 F30      -0.564100
     16 N13         60.2680    -6.7760    34.7260 ns         1 F30      -0.473100
     17 C14         60.2180    -8.0480    35.2980 ca         1 F30       0.081600
     18 C16         59.1190   -10.0730    36.0110 ca         1 F30      -0.115500
     19 C18         61.4800    -9.8420    36.3140 ca         1 F30      -0.099000
     20 C19         61.4310    -8.5860    35.7410 ca         1 F30      -0.174000
     21 N21         57.7580   -12.1420    36.3500 na         1 F30      -0.162400
     22 N22         56.4780   -12.4610    36.4000 nc         1 F30      -0.206800
     23 N23         55.8310   -11.3780    36.2220 nd         1 F30      -0.041000
     24 N24         56.6550   -10.3480    36.0560 nd         1 F30      -0.374000
     25 H1          58.1050    -8.4210    35.1070 ha         1 F30       0.194000
     26 H2          60.3820   -11.5730    36.9240 ha         1 F30       0.128000
     27 H3          59.0880     0.6230    31.8520 h4         1 F30       0.180000
     28 H4          61.2120    -0.6400    31.4870 hn         1 F30       0.305700
     29 H5          62.2640    -3.2040    32.0000 ha         1 F30       0.138000
     30 H6          61.6570    -5.3340    33.0150 ha         1 F30       0.127000
     31 H7          57.7420    -3.8490    34.0250 ha         1 F30       0.168000
     32 H8          61.1870    -6.3610    34.7190 hn         1 F30       0.320500
     33 H9          62.4280   -10.2340    36.6560 ha         1 F30       0.136000
     34 H10         62.3450    -8.0140    35.6340 ha         1 F30       0.131000
     35 H11         58.4670   -12.8580    36.4420 hn         1 F30       0.334700
@<TRIPOS>BOND
     1     1     6 1   
     2     1     9 ar  
     3     1    13 ar  
     4     2    17 ar  
     5     2    18 ar  
     6     2    25 1   
     7     3    18 ar  
     8     3    19 ar  
     9     3    26 1   
    10     4    18 1   
    11     4    21 1   
    12     4    24 2   
    13     5     6 1   
    14     6     7 2   
    15     7     8 1   
    16     7    27 1   
    17     8     9 1   
    18     8    28 1   
    19     9    10 ar  
    20    10    11 ar  
    21    10    29 1   
    22    11    12 ar  
    23    11    30 1   
    24    12    13 ar  
    25    12    14 1   
    26    13    31 1   
    27    14    15 2   
    28    14    16 1   
    29    16    17 1   
    30    16    32 1   
    31    17    20 ar  
    32    19    20 ar  
    33    19    33 1   
    34    20    34 1   
    35    21    22 1   
    36    21    35 1   
    37    22    23 2   
    38    23    24 1   
@<TRIPOS>SUBSTRUCTURE
     1 F30         1 TEMP              0 ****  ****    0 ROOT
