@<TRIPOS>MOLECULE
F30
   35    38     1     0     0
SMALL
No Charge or Current Charge


@<TRIPOS>ATOM
      1 C10         59.0810    -2.4120    32.8550 ca         1 F30      -0.092800
      2 C15         59.0130    -8.8740    35.4410 ca         1 F30      -0.088000
      3 C17         60.3410   -10.7740    36.1830 ca         1 F30      -0.129000
      4 C20         57.8350   -10.9130    36.2910 cc         1 F30       0.454000
      5 Br01        56.4520    -1.0290    32.4960 br         1 F30      -0.034700
      6 C02         58.3220    -1.2680    32.4450 cc         1 F30      -0.101500
      7 C03         59.2390    -0.3300    31.9850 cd         1 F30      -0.124100
      8 N04         60.5480    -0.8630    32.0990 na         1 F30      -0.212700
      9 C05         60.3970    -2.1310    32.6330 ca         1 F30      -0.030200
     10 C06         61.3970    -3.0610    32.9360 ca         1 F30      -0.132000
     11 C07         61.0140    -4.3060    33.4800 ca         1 F30      -0.071000
     12 C08         59.6390    -4.6090    33.7150 ca         1 F30      -0.190600
     13 C09         58.6580    -3.6350    33.3930 ca         1 F30       0.016000
     14 C11         59.1900    -5.9350    34.2970 c          1 F30       0.625700
     15 O12         58.0020    -6.1680    34.4900 o          1 F30      -0.564100
     16 N13         60.2030    -6.8400    34.5910 ns         1 F30      -0.147000
     17 C14         60.1930    -8.1590    35.1280 ca         1 F30      -0.011000
     18 C16         59.0740   -10.1850    35.9710 ca         1 F30      -0.115500
     19 C18         61.5140   -10.0700    35.8720 ca         1 F30      -0.081000
     20 C19         61.4390    -8.7720    35.3470 ca         1 F30      -0.156000
     21 N21         57.7500   -12.1750    36.8050 na         1 F30      -0.212700
     22 N22         56.4530   -12.5340    36.9760 nc         1 F30      -0.206800
     23 N23         55.7730   -11.4970    36.5680 nd         1 F30      -0.041000
     24 N24         56.5980   -10.4830    36.1410 nd         1 F30      -0.374000
     25 H1          58.0380    -8.4270    35.2760 ha         1 F30       0.176000
     26 H2          60.4280   -11.7790    36.5880 ha         1 F30       0.110000
     27 H3          59.0560     0.6660    31.5890 h4         1 F30       0.230000
     28 H4          61.4190    -0.4080    31.8420 hn         1 F30       0.356000
     29 H5          62.4450    -2.8320    32.7580 ha         1 F30       0.120000
     30 H6          61.7980    -5.0220    33.7120 ha         1 F30       0.109000
     31 H7          57.5980    -3.8200    33.5540 ha         1 F30       0.150000
     32 H8          61.1310    -6.4980    34.3840 hn         1 F30       0.154000
     33 H9          62.4850   -10.5330    36.0380 ha         1 F30       0.118000
     34 H10         62.3580    -8.2400    35.1110 ha         1 F30       0.113000
     35 H11         58.5190   -12.7890    37.0390 hn         1 F30       0.385000
@<TRIPOS>BOND
     1     1     6 1   
     2     1     9 ar  
     3     1    13 ar  
     4     2    17 ar  
     5     2    18 ar  
     6     2    25 1   
     7     3    18 ar  
     8     3    19 ar  
     9     3    26 1   
    10     4    18 1   
    11     4    21 1   
    12     4    24 2   
    13     5     6 1   
    14     6     7 2   
    15     7     8 1   
    16     7    27 1   
    17     8     9 1   
    18     8    28 1   
    19     9    10 ar  
    20    10    11 ar  
    21    10    29 1   
    22    11    12 ar  
    23    11    30 1   
    24    12    13 ar  
    25    12    14 1   
    26    13    31 1   
    27    14    15 2   
    28    14    16 1   
    29    16    17 1   
    30    16    32 1   
    31    17    20 ar  
    32    19    20 ar  
    33    19    33 1   
    34    20    34 1   
    35    21    22 1   
    36    21    35 1   
    37    22    23 2   
    38    23    24 1   
@<TRIPOS>SUBSTRUCTURE
     1 F30         1 TEMP              0 ****  ****    0 ROOT
