@<TRIPOS>MOLECULE
F31
   23    23     1     0     0
SMALL
abcg2


@<TRIPOS>ATOM
      1 CAA         -1.9370     2.5790     0.0360 c3         1 F31       0.151900
      2 CAB          2.9510     1.5320     0.0020 c3         1 F31      -0.195100
      3 CAE         -0.5510    -1.9970    -0.0890 ca         1 F31      -0.191000
      4 CAF          0.7820    -1.6340    -0.0800 ca         1 F31      -0.031000
      5 CAG          0.1430     0.6820    -0.0210 ca         1 F31      -0.113000
      6 CAJ         -1.5660    -1.0370    -0.0670 ca         1 F31       0.319000
      7 CAK          1.1540    -0.2920    -0.0450 ca         1 F31      -0.202600
      8 CAL         -1.1890     0.3270    -0.0350 ca         1 F31       0.049100
      9 OAD          3.4510    -0.7860    -0.0430 o          1 F31      -0.536100
     10 OAH         -2.2230     1.1980    -0.0190 os         1 F31      -0.355100
     11 H1          -2.8950     3.0940     0.0440 h1         1 F31       0.039367
     12 H2          -1.3860     2.8460     0.9430 h1         1 F31       0.039367
     13 H3          -1.3650     2.9120    -0.8340 h1         1 F31       0.039367
     14 H4           2.5470     2.0580    -0.8650 hc         1 F31       0.058033
     15 H5           2.5430     2.0190     0.8900 hc         1 F31       0.058033
     16 H6           4.0320     1.6490     0.0060 hc         1 F31       0.058033
     17 H7          -0.8230    -3.0460    -0.1120 ha         1 F31       0.118000
     18 H8           1.5390    -2.4050    -0.0970 ha         1 F31       0.133000
     19 H9           0.4120     1.7290     0.0080 ha         1 F31       0.115000
     20 H10         -3.1120    -2.3360     0.1040 hn         1 F31       0.467000
     21 H11         -3.5580    -0.7180     0.2190 hn         1 F31       0.467000
     22 NAC         -2.8840    -1.3820    -0.1240 nv         1 F31      -1.077000
     23 CAI          2.5840     0.0700    -0.0300 c          1 F31       0.589700
@<TRIPOS>BOND
     1     1    10 1   
     2     1    11 1   
     3     1    12 1   
     4     1    13 1   
     5     2    14 1   
     6     2    15 1   
     7     2    16 1   
     8     2    23 1   
     9     3     4 ar  
    10     3     6 ar  
    11     3    17 1   
    12     4     7 ar  
    13     4    18 1   
    14     5     7 ar  
    15     5     8 ar  
    16     5    19 1   
    17     6     8 ar  
    18     6    22 1   
    19     7    23 1   
    20     8    10 1   
    21     9    23 2   
    22    20    22 1   
    23    21    22 1   
@<TRIPOS>SUBSTRUCTURE
     1 F31         1 TEMP              0 ****  ****    0 ROOT
