@<TRIPOS>MOLECULE
F31
   23    23     1     0     0
SMALL
No Charge or Current Charge


@<TRIPOS>ATOM
      1 CAA         -1.9910     2.6720     0.0430 c3         1 F31       0.151900
      2 CAB          3.0460     1.5390     0.0010 c3         1 F31      -0.195100
      3 CAE         -0.5690    -2.0390    -0.0860 ca         1 F31      -0.191000
      4 CAF          0.7840    -1.6650    -0.0770 ca         1 F31      -0.031000
      5 CAG          0.1370     0.6810    -0.0170 ca         1 F31      -0.113000
      6 CAJ         -1.5760    -1.0670    -0.0620 ca         1 F31       0.319000
      7 CAK          1.1570    -0.3030    -0.0430 ca         1 F31      -0.202600
      8 CAL         -1.2290     0.3080    -0.0250 ca         1 F31       0.049100
      9 OAD          3.4950    -0.8020    -0.0570 o          1 F31      -0.536100
     10 OAH         -2.2470     1.2550     0.0050 os         1 F31      -0.355100
     11 H1          -2.9360     3.2280     0.0610 h1         1 F31       0.039367
     12 H2          -1.4200     2.9420     0.9400 h1         1 F31       0.039367
     13 H3          -1.4270     2.9900    -0.8440 h1         1 F31       0.039367
     14 H4           2.5820     2.0630    -0.8420 hc         1 F31       0.058033
     15 H5           2.5850     2.0210     0.8700 hc         1 F31       0.058033
     16 H6           4.1340     1.6700     0.0020 hc         1 F31       0.058033
     17 H7          -0.8310    -3.0930    -0.1140 ha         1 F31       0.118000
     18 H8           1.5440    -2.4450    -0.0980 ha         1 F31       0.133000
     19 H9           0.4060     1.7320     0.0110 ha         1 F31       0.115000
     20 H10         -3.1220    -2.4440     0.1280 hn         1 F31       0.467000
     21 H11         -3.6120    -0.7730     0.0990 hn         1 F31       0.467000
     22 NAC         -2.8910    -1.4730    -0.0700 nv         1 F31      -1.077000
     23 CAI          2.6300     0.0660    -0.0350 c          1 F31       0.589700
@<TRIPOS>BOND
     1     1    10 1   
     2     1    11 1   
     3     1    12 1   
     4     1    13 1   
     5     2    14 1   
     6     2    15 1   
     7     2    16 1   
     8     2    23 1   
     9     3     4 ar  
    10     3     6 ar  
    11     3    17 1   
    12     4     7 ar  
    13     4    18 1   
    14     5     7 ar  
    15     5     8 ar  
    16     5    19 1   
    17     6     8 ar  
    18     6    22 1   
    19     7    23 1   
    20     8    10 1   
    21     9    23 2   
    22    20    22 1   
    23    21    22 1   
@<TRIPOS>SUBSTRUCTURE
     1 F31         1 TEMP              0 ****  ****    0 ROOT
