@<TRIPOS>MOLECULE
F32
   56    61     1     0     0
SMALL
bcc


@<TRIPOS>ATOM
      1 C1          -4.9460     0.0450     0.6680 c5         1 F32      -0.105600
      2 C2          -5.4090    -1.0490    -0.2890 c5         1 F32      -0.155400
      3 C3          -6.9160    -0.9710    -0.4000 c          1 F32       0.718500
      4 N4          -7.3540     0.2650     0.0060 ns         1 F32      -0.655300
      5 S5          -6.1450     1.3710     0.3710 s6         1 F32       1.219600
      6 O6          -6.4940     2.0980     1.5750 o          1 F32      -0.579300
      7 O7          -5.7920     2.1310    -0.8140 o          1 F32      -0.579300
      8 O9          -7.6430    -1.8480    -0.7930 o          1 F32      -0.556500
      9 C11         -3.5430     0.5520     0.5540 ca         1 F32      -0.085300
     10 C12         -2.8350     0.8330     1.7160 ca         1 F32      -0.099500
     11 C13         -1.5370     1.3190     1.6520 ca         1 F32      -0.123500
     12 C14         -0.9200     1.5380     0.4250 ca         1 F32      -0.076300
     13 C15         -1.6380     1.2640    -0.7380 ca         1 F32      -0.123500
     14 C16         -2.9340     0.7810    -0.6780 ca         1 F32      -0.099500
     15 C21          0.5000     2.0240     0.3520 c3         1 F32      -0.051100
     16 C22          1.4610     0.9330    -0.1450 c3         1 F32       0.229200
     17 N45          1.4050    -0.2100     0.7390 nu         1 F32      -0.846200
     18 C17          7.0350     2.9790     0.3610 ca         1 F32      -0.111000
     19 C19          6.0780     2.2780     1.0740 ca         1 F32      -0.134000
     20 C23          4.8680     2.0460     0.4310 ca         1 F32      -0.077200
     21 C4           4.6080     2.4870    -0.8780 ca         1 F32       0.070400
     22 C5           5.5860     3.1920    -1.5790 ca         1 F32      -0.066000
     23 C6           6.7930     3.4300    -0.9460 ca         1 F32      -0.154000
     24 N11          3.7190     1.4070     0.8140 na         1 F32      -0.250300
     25 C25          2.8550     1.4740    -0.2290 cc         1 F32       0.411800
     26 N13          3.3400     2.1100    -1.2570 nd         1 F32      -0.570100
     27 C7           3.7550    -5.5500    -0.8220 ca         1 F32      -0.134000
     28 C8           2.9750    -5.0610     0.2160 ca         1 F32      -0.083000
     29 C9           2.6390    -3.7170     0.1990 ca         1 F32      -0.057100
     30 C18          3.0590    -2.8530    -0.8260 ca         1 F32       0.137400
     31 C20          3.8430    -3.3630    -1.8580 ca         1 F32      -0.089000
     32 C24          4.1830    -4.7060    -1.8470 ca         1 F32      -0.118000
     33 S1           1.6860    -2.8210     1.3490 ss         1 F32      -0.171100
     34 C10          1.9320    -1.3890     0.3570 cc         1 F32       0.629100
     35 N1           2.6430    -1.5480    -0.7080 nd         1 F32      -0.608100
     36 H1          -5.1480    -0.2700     1.6950 h1         1 F32       0.111700
     37 H2C1        -5.1090    -2.0310     0.0720 hc         1 F32       0.100700
     38 H2C2        -4.9930    -0.9270    -1.2920 hc         1 F32       0.100700
     39 H4          -8.3230     0.5570    -0.0820 hn         1 F32       0.358500
     40 H12         -3.2930     0.6630     2.6820 ha         1 F32       0.141500
     41 H13         -1.0040     1.5330     2.5710 ha         1 F32       0.140500
     42 H15         -1.1840     1.4370    -1.7060 ha         1 F32       0.140500
     43 H16         -3.4590     0.5840    -1.6030 ha         1 F32       0.141500
     44 H211         0.5760     2.8650    -0.3390 hc         1 F32       0.073200
     45 H212         0.8280     2.3820     1.3310 hc         1 F32       0.073200
     46 H22          1.1670     0.6400    -1.1580 h1         1 F32       0.097700
     47 H45          0.7260    -0.2060     1.4830 hn         1 F32       0.452800
     48 H19          6.2670     1.9300     2.0810 ha         1 F32       0.134000
     49 H5           5.4020     3.5410    -2.5870 ha         1 F32       0.146000
     50 H6           7.5690     3.9770    -1.4650 ha         1 F32       0.131000
     51 H11          3.5460     0.9480     1.6940 hn         1 F32       0.309700
     52 H7           4.0330    -6.5960    -0.8320 ha         1 F32       0.134000
     53 H8           2.6410    -5.7130     1.0130 ha         1 F32       0.140000
     54 H20          4.1770    -2.7110    -2.6540 ha         1 F32       0.153000
     55 H24          4.7900    -5.1070    -2.6480 ha         1 F32       0.135000
     56 H17          7.9930     3.1850     0.8210 ha         1 F32       0.129000
@<TRIPOS>BOND
     1     1     2 1   
     2     1     5 1   
     3     1     9 1   
     4     1    36 1   
     5     2     3 1   
     6     2    37 1   
     7     2    38 1   
     8     3     4 1   
     9     3     8 2   
    10     4     5 1   
    11     4    39 1   
    12     5     6 2   
    13     5     7 2   
    14     9    10 ar  
    15     9    14 ar  
    16    10    11 ar  
    17    10    40 1   
    18    11    12 ar  
    19    11    41 1   
    20    12    13 ar  
    21    12    15 1   
    22    13    14 ar  
    23    13    42 1   
    24    14    43 1   
    25    15    16 1   
    26    15    44 1   
    27    15    45 1   
    28    16    17 1   
    29    16    25 1   
    30    16    46 1   
    31    17    34 1   
    32    17    47 1   
    33    18    19 ar  
    34    18    23 ar  
    35    18    56 1   
    36    19    20 ar  
    37    19    48 1   
    38    20    21 ar  
    39    20    24 1   
    40    21    22 ar  
    41    21    26 1   
    42    22    23 ar  
    43    22    49 1   
    44    23    50 1   
    45    24    25 1   
    46    24    51 1   
    47    25    26 2   
    48    27    28 ar  
    49    27    32 ar  
    50    27    52 1   
    51    28    29 ar  
    52    28    53 1   
    53    29    30 ar  
    54    29    33 1   
    55    30    31 ar  
    56    30    35 1   
    57    31    32 ar  
    58    31    54 1   
    59    32    55 1   
    60    33    34 1   
    61    34    35 2   
@<TRIPOS>SUBSTRUCTURE
     1 F32         1 TEMP              0 ****  ****    0 ROOT
