@<TRIPOS>MOLECULE
F32
   56    61     1     0     0
SMALL
No Charge or Current Charge


@<TRIPOS>ATOM
      1 C1          -4.9820     0.1360     0.7700 c5         1 F32      -0.216400
      2 C2          -5.1570    -1.2590     0.0470 c5         1 F32      -0.155400
      3 C3          -6.6780    -1.4360    -0.2320 c          1 F32       0.576000
      4 N4          -7.1960    -0.2070    -0.4900 ns         1 F32      -0.588300
      5 S5          -6.2830     1.1210    -0.1190 s6         1 F32       1.188800
      6 O6          -7.0650     1.9550     0.7990 o          1 F32      -0.508500
      7 O7          -5.7860     1.6680    -1.3860 o          1 F32      -0.508500
      8 O9          -7.3800    -2.4090    -0.0200 o          1 F32      -0.481000
      9 C11         -3.5440     0.6650     0.6340 ca         1 F32      -0.085300
     10 C12         -2.8530     1.0470     1.8010 ca         1 F32      -0.081500
     11 C13         -1.5360     1.5320     1.7340 ca         1 F32      -0.105500
     12 C14         -0.8810     1.6460     0.4940 ca         1 F32      -0.076300
     13 C15         -1.5660     1.2750    -0.6760 ca         1 F32      -0.105500
     14 C16         -2.8830     0.7880    -0.6080 ca         1 F32      -0.081500
     15 C21          0.5550     2.1610     0.4200 c3         1 F32      -0.051100
     16 C22          1.5630     1.1060    -0.0980 c3         1 F32       0.229200
     17 N45          1.4670    -0.1180     0.7470 nu         1 F32      -0.901400
     18 C17          7.3220     2.9700     0.3310 ca         1 F32      -0.093000
     19 C19          6.3580     2.1540     0.9620 ca         1 F32      -0.116000
     20 C23          5.0880     2.0890     0.3770 ca         1 F32      -0.077200
     21 C4           4.7540     2.7700    -0.7580 ca         1 F32       0.070400
     22 C5           5.6940     3.5880    -1.4020 ca         1 F32      -0.048000
     23 C6           6.9900     3.6840    -0.8460 ca         1 F32      -0.136000
     24 N11          3.9810     1.3970     0.7560 na         1 F32      -0.300600
     25 C25          2.9810     1.6750    -0.1750 cc         1 F32       0.411800
     26 N13          3.4320     2.5290    -1.1230 nd         1 F32      -0.570100
     27 C7           3.2260    -5.6650    -0.9780 ca         1 F32      -0.116000
     28 C8           2.4470    -5.1080     0.0540 ca         1 F32      -0.065000
     29 C9           2.2810    -3.7150     0.0900 ca         1 F32      -0.184000
     30 C18          2.8570    -2.8830    -0.8520 ca         1 F32       0.137400
     31 C20          3.6360    -3.4310    -1.8850 ca         1 F32      -0.071000
     32 C24          3.8200    -4.8280    -1.9460 ca         1 F32      -0.100000
     33 S1           1.3560    -2.8200     1.2820 ss         1 F32      -0.044200
     34 C10          1.8470    -1.3760     0.3690 cc         1 F32       0.629100
     35 N1           2.6170    -1.5230    -0.7060 nd         1 F32      -0.608100
     36 H1          -5.3200     0.0930     1.8130 h1         1 F32       0.111700
     37 H2C1        -4.7590    -2.1150     0.6030 hc         1 F32       0.100700
     38 H2C2        -4.6790    -1.2250    -0.9370 hc         1 F32       0.100700
     39 H4          -8.1860    -0.0540    -0.4080 hn         1 F32       0.358500
     40 H12         -3.3380     0.9640     2.7710 ha         1 F32       0.123500
     41 H13         -1.0270     1.8190     2.6520 ha         1 F32       0.122500
     42 H15         -1.0800     1.3620    -1.6450 ha         1 F32       0.122500
     43 H16         -3.3820     0.5150    -1.5340 ha         1 F32       0.123500
     44 H211         0.5930     3.0350    -0.2410 hc         1 F32       0.073200
     45 H212         0.8890     2.5160     1.4030 hc         1 F32       0.073200
     46 H22          1.2750     0.8540    -1.1280 h1         1 F32       0.097700
     47 H45          0.7550    -0.1210     1.4740 hn         1 F32       0.508000
     48 H19          6.5950     1.5990     1.8660 ha         1 F32       0.116000
     49 H5           5.4310     4.1320    -2.3050 ha         1 F32       0.128000
     50 H6           7.7380     4.3120    -1.3260 ha         1 F32       0.113000
     51 H11          3.8820     0.7710     1.5430 hn         1 F32       0.360000
     52 H7           3.3700    -6.7420    -1.0270 ha         1 F32       0.116000
     53 H8           1.9850    -5.7440     0.8060 ha         1 F32       0.122000
     54 H20          4.0910    -2.7830    -2.6280 ha         1 F32       0.135000
     55 H24          4.4220    -5.2610    -2.7420 ha         1 F32       0.117000
     56 H17          8.3220     3.0510     0.7520 ha         1 F32       0.111000
@<TRIPOS>BOND
     1     1     2 1   
     2     1     5 1   
     3     1     9 1   
     4     1    36 1   
     5     2     3 1   
     6     2    37 1   
     7     2    38 1   
     8     3     4 1   
     9     3     8 2   
    10     4     5 1   
    11     4    39 1   
    12     5     6 2   
    13     5     7 2   
    14     9    10 ar  
    15     9    14 ar  
    16    10    11 ar  
    17    10    40 1   
    18    11    12 ar  
    19    11    41 1   
    20    12    13 ar  
    21    12    15 1   
    22    13    14 ar  
    23    13    42 1   
    24    14    43 1   
    25    15    16 1   
    26    15    44 1   
    27    15    45 1   
    28    16    17 1   
    29    16    25 1   
    30    16    46 1   
    31    17    34 1   
    32    17    47 1   
    33    18    19 ar  
    34    18    23 ar  
    35    18    56 1   
    36    19    20 ar  
    37    19    48 1   
    38    20    21 ar  
    39    20    24 1   
    40    21    22 ar  
    41    21    26 1   
    42    22    23 ar  
    43    22    49 1   
    44    23    50 1   
    45    24    25 1   
    46    24    51 1   
    47    25    26 2   
    48    27    28 ar  
    49    27    32 ar  
    50    27    52 1   
    51    28    29 ar  
    52    28    53 1   
    53    29    30 ar  
    54    29    33 1   
    55    30    31 ar  
    56    30    35 1   
    57    31    32 ar  
    58    31    54 1   
    59    32    55 1   
    60    33    34 1   
    61    34    35 2   
@<TRIPOS>SUBSTRUCTURE
     1 F32         1 TEMP              0 ****  ****    0 ROOT
