@<TRIPOS>MOLECULE
F33
   36    39     1     0     0
SMALL
No Charge or Current Charge


@<TRIPOS>ATOM
      1 O           -4.6510     2.0630     0.6250 o          1 F33      -0.504000
      2 C4          -5.0570     0.9410     0.3630 c          1 F33       0.702100
      3 C1          -6.5170    -0.7520    -0.1630 c5         1 F33       0.143600
      4 N           -4.2820    -0.1830     0.0430 n          1 F33      -0.257400
      5 C5          -2.8490    -0.2140    -0.1180 ca         1 F33       0.021000
      6 C10         -2.1240     0.9310    -0.5070 ca         1 F33      -0.153500
      7 C9          -0.7190     0.9300    -0.5160 ca         1 F33      -0.045500
      8 C6          -2.1240    -1.3130     0.3830 ca         1 F33      -0.153500
      9 C7          -0.7190    -1.3220     0.3770 ca         1 F33      -0.045500
     10 O10         -6.3720     0.5810     0.3800 os         1 F33      -0.406100
     11 C8           0.0080    -0.2100    -0.1060 ca         1 F33      -0.177900
     12 C11          1.4800    -0.1870    -0.0820 cc         1 F33       0.566500
     13 N2           2.0970    -1.4010    -0.2380 ns         1 F33      -0.428400
     14 C18          3.4320    -1.5970    -0.2540 c          1 F33       0.578600
     15 O1           3.9190    -2.7080    -0.3950 o          1 F33      -0.539000
     16 N1           2.1320     0.9700     0.0490 nd         1 F33      -0.632100
     17 C12          3.5330     0.8630     0.0470 ca         1 F33       0.192400
     18 C17          4.2230    -0.3560    -0.0920 ca         1 F33      -0.205600
     19 C13          4.2770     2.0490     0.1940 ca         1 F33      -0.105000
     20 C14          5.6820     2.0260     0.2050 ca         1 F33      -0.074000
     21 C15          6.3610     0.8060     0.0670 ca         1 F33      -0.134000
     22 C2          -5.1070    -1.3920    -0.0780 c5         1 F33       0.060000
     23 C16          5.6350    -0.3860    -0.0820 ca         1 F33      -0.040000
     24 H11C        -7.2780    -1.3120     0.3950 h1         1 F33       0.073700
     25 H12C        -6.8410    -0.6670    -1.2090 h1         1 F33       0.073700
     26 H21C        -5.0100    -2.0320     0.8080 h1         1 F33       0.067200
     27 H22C        -4.8610    -1.9770    -0.9740 h1         1 F33       0.067200
     28 H6          -2.6460    -2.1770     0.7870 ha         1 F33       0.133000
     29 H10         -2.6410     1.8250    -0.8410 ha         1 F33       0.133000
     30 H7          -0.2050    -2.1940     0.7770 ha         1 F33       0.129000
     31 H9          -0.1970     1.8230    -0.8540 ha         1 F33       0.129000
     32 H2           1.5280    -2.2210    -0.3740 hn         1 F33       0.329500
     33 H13          3.7570     2.9980     0.3020 ha         1 F33       0.133000
     34 H16          6.1680    -1.3290    -0.1900 ha         1 F33       0.135000
     35 H14          6.2410     2.9520     0.3200 ha         1 F33       0.117000
     36 H15          7.4490     0.7830     0.0740 ha         1 F33       0.119000
@<TRIPOS>BOND
     1     1     2 2   
     2     2     4 1   
     3     2    10 1   
     4     3    10 1   
     5     3    22 1   
     6     3    24 1   
     7     3    25 1   
     8     4     5 1   
     9     4    22 1   
    10     5     6 ar  
    11     5     8 ar  
    12     6     7 ar  
    13     6    29 1   
    14     7    11 ar  
    15     7    31 1   
    16     8     9 ar  
    17     8    28 1   
    18     9    11 ar  
    19     9    30 1   
    20    11    12 1   
    21    12    13 1   
    22    12    16 2   
    23    13    14 1   
    24    13    32 1   
    25    14    15 2   
    26    14    18 1   
    27    16    17 1   
    28    17    18 ar  
    29    17    19 ar  
    30    18    23 ar  
    31    19    20 ar  
    32    19    33 1   
    33    20    21 ar  
    34    20    35 1   
    35    21    23 ar  
    36    21    36 1   
    37    22    26 1   
    38    22    27 1   
    39    23    34 1   
@<TRIPOS>SUBSTRUCTURE
     1 F33         1 TEMP              0 ****  ****    0 ROOT
