@<TRIPOS>MOLECULE
F33
   36    39     1     0     0
SMALL
bcc


@<TRIPOS>ATOM
      1 O           -4.6710     2.1130     0.3850 o          1 F33      -0.579500
      2 C4          -5.0070     0.9730     0.2040 c          1 F33       0.844600
      3 C1          -6.4050    -0.7780    -0.1630 c5         1 F33       0.120400
      4 N           -4.2160    -0.1230    -0.0240 n          1 F33      -0.417000
      5 C5          -2.8230    -0.1290    -0.0290 ca         1 F33       0.113600
      6 C10         -2.0740     1.0000    -0.3810 ca         1 F33      -0.171500
      7 C9          -0.6950     0.9420    -0.3870 ca         1 F33      -0.063500
      8 C6          -2.1480    -1.3080     0.2870 ca         1 F33      -0.171500
      9 C7          -0.7660    -1.3570     0.2670 ca         1 F33      -0.063500
     10 O10         -6.2870     0.5960     0.2160 os         1 F33      -0.382900
     11 C8          -0.0150    -0.2340    -0.0670 ca         1 F33      -0.177900
     12 C11          1.4560    -0.2400    -0.0800 cc         1 F33       0.566500
     13 N2           2.0830    -1.4420    -0.2460 ns         1 F33      -0.495400
     14 C18          3.4500    -1.6170    -0.2550 c          1 F33       0.721100
     15 O1           3.9420    -2.7210    -0.4020 o          1 F33      -0.614500
     16 N1           2.0990     0.8660     0.0620 nd         1 F33      -0.632100
     17 C12          3.4700     0.8250     0.0500 ca         1 F33       0.192400
     18 C17          4.1890    -0.3730    -0.0890 ca         1 F33      -0.205600
     19 C13          4.1800     2.0260     0.1940 ca         1 F33      -0.123000
     20 C14          5.5570     2.0200     0.1970 ca         1 F33      -0.092000
     21 C15          6.2680     0.8220     0.0580 ca         1 F33      -0.152000
     22 C2          -5.0060    -1.3410     0.0400 c5         1 F33       0.060000
     23 C16          5.5870    -0.3660    -0.0860 ca         1 F33      -0.058000
     24 H11C        -7.1540    -1.2560     0.4640 h1         1 F33       0.073700
     25 H12C        -6.7200    -0.8310    -1.2060 h1         1 F33       0.073700
     26 H21C        -4.8960    -1.8360     1.0080 h1         1 F33       0.067200
     27 H22C        -4.7290    -2.0420    -0.7470 h1         1 F33       0.067200
     28 H6          -2.6900    -2.2000     0.5690 ha         1 F33       0.151000
     29 H10         -2.5560     1.9210    -0.6670 ha         1 F33       0.151000
     30 H7          -0.2940    -2.2890     0.5530 ha         1 F33       0.147000
     31 H9          -0.1350     1.8230    -0.6650 ha         1 F33       0.147000
     32 H2           1.5290    -2.2710    -0.4170 hn         1 F33       0.329500
     33 H13          3.6260     2.9490     0.3060 ha         1 F33       0.151000
     34 H16          6.1270    -1.2970    -0.1980 ha         1 F33       0.153000
     35 H14          6.0960     2.9520     0.3120 ha         1 F33       0.135000
     36 H15          7.3490     0.8320     0.0620 ha         1 F33       0.137000
@<TRIPOS>BOND
     1     1     2 2   
     2     2     4 1   
     3     2    10 1   
     4     3    10 1   
     5     3    22 1   
     6     3    24 1   
     7     3    25 1   
     8     4     5 1   
     9     4    22 1   
    10     5     6 ar  
    11     5     8 ar  
    12     6     7 ar  
    13     6    29 1   
    14     7    11 ar  
    15     7    31 1   
    16     8     9 ar  
    17     8    28 1   
    18     9    11 ar  
    19     9    30 1   
    20    11    12 1   
    21    12    13 1   
    22    12    16 2   
    23    13    14 1   
    24    13    32 1   
    25    14    15 2   
    26    14    18 1   
    27    16    17 1   
    28    17    18 ar  
    29    17    19 ar  
    30    18    23 ar  
    31    19    20 ar  
    32    19    33 1   
    33    20    21 ar  
    34    20    35 1   
    35    21    23 ar  
    36    21    36 1   
    37    22    26 1   
    38    22    27 1   
    39    23    34 1   
@<TRIPOS>SUBSTRUCTURE
     1 F33         1 TEMP              0 ****  ****    0 ROOT
