@<TRIPOS>MOLECULE
F34
   30    30     1     0     0
SMALL
abcg2


@<TRIPOS>ATOM
      1 O8           3.0350    -1.0460    -1.2030 o          1 F34      -0.607100
      2 C8           3.1050    -0.1530    -0.3680 c          1 F34       0.600100
      3 C9           4.4160     0.4720     0.0480 c3         1 F34      -0.180100
      4 N2           2.0260     0.3520     0.2540 ns         1 F34      -0.500900
      5 C3           0.6770    -0.1140     0.0160 c3         1 F34       0.121700
      6 C4          -0.3180     1.0210     0.3180 c3         1 F34       0.162300
      7 O4           0.2830     2.2580     0.0000 oh         1 F34      -0.722000
      8 C5          -1.6550     0.9050    -0.4170 c3         1 F34       0.147300
      9 O5          -2.5280     1.7580     0.2940 oh         1 F34      -0.676000
     10 C6          -2.2330    -0.5080    -0.5540 c3         1 F34       0.138300
     11 O6          -3.5950    -0.3180    -0.8760 oh         1 F34      -0.735000
     12 C7          -2.0370    -1.4110     0.6650 c3         1 F34       0.133800
     13 N1          -0.7610    -2.0960     0.5710 n7         1 F34      -0.875400
     14 C2           0.4130    -1.3290     0.9220 c3         1 F34       0.146800
     15 H91C         5.2420     0.0130    -0.4870 hc         1 F34       0.060033
     16 H92C         4.4180     1.5430    -0.1570 hc         1 F34       0.060033
     17 H93C         4.5790     0.3470     1.1190 hc         1 F34       0.060033
     18 H2           2.1630     1.0930     0.9230 hn         1 F34       0.321500
     19 H3           0.6060    -0.4210    -1.0320 h1         1 F34       0.095700
     20 H4          -0.5310     0.9800     1.3970 h1         1 F34       0.041700
     21 H21C         1.2690    -2.0000     0.8370 h1         1 F34       0.040200
     22 H22C         0.3980    -0.9630     1.9620 h1         1 F34       0.040200
     23 HA          -0.3240     2.9560     0.2690 ho         1 F34       0.522000
     24 H5          -1.4940     1.2840    -1.4380 h1         1 F34       0.052700
     25 HB          -3.3860     1.7380    -0.1430 ho         1 F34       0.470000
     26 H6          -1.7080    -1.0000    -1.3840 h1         1 F34       0.060700
     27 HC          -3.9740    -1.1650    -1.1300 ho         1 F34       0.516000
     28 H71C        -2.1730    -0.8480     1.6020 h1         1 F34       0.041200
     29 H72C        -2.8130    -2.1790     0.6500 h1         1 F34       0.041200
     30 H1          -0.7830    -2.9230     1.1500 hn         1 F34       0.425000
@<TRIPOS>BOND
     1     1     2 2   
     2     2     3 1   
     3     2     4 1   
     4     3    15 1   
     5     3    16 1   
     6     3    17 1   
     7     4     5 1   
     8     4    18 1   
     9     5     6 1   
    10     5    14 1   
    11     5    19 1   
    12     6     7 1   
    13     6     8 1   
    14     6    20 1   
    15     7    23 1   
    16     8     9 1   
    17     8    10 1   
    18     8    24 1   
    19     9    25 1   
    20    10    11 1   
    21    10    12 1   
    22    10    26 1   
    23    11    27 1   
    24    12    13 1   
    25    12    28 1   
    26    12    29 1   
    27    13    14 1   
    28    13    30 1   
    29    14    21 1   
    30    14    22 1   
@<TRIPOS>SUBSTRUCTURE
     1 F34         1 TEMP              0 ****  ****    0 ROOT
