@<TRIPOS>MOLECULE
F34
   30    30     1     0     0
SMALL
No Charge or Current Charge


@<TRIPOS>ATOM
      1 O8           3.1800    -1.2810    -0.9250 o          1 F34      -0.607100
      2 C8           3.2230    -0.2410    -0.2850 c          1 F34       0.600100
      3 C9           4.5270     0.4930    -0.0010 c3         1 F34      -0.180100
      4 N2           2.1010     0.3610     0.2300 ns         1 F34      -0.500900
      5 C3           0.7160    -0.1120     0.0510 c3         1 F34       0.121700
      6 C4          -0.3100     1.0160     0.3930 c3         1 F34       0.162300
      7 O4           0.2660     2.3350     0.2620 oh         1 F34      -0.722000
      8 C5          -1.6250     0.9640    -0.4420 c3         1 F34       0.147300
      9 O5          -2.5830     1.8680     0.1310 oh         1 F34      -0.676000
     10 C6          -2.2970    -0.4370    -0.5700 c3         1 F34       0.138300
     11 O6          -3.7100    -0.2530    -0.8400 oh         1 F34      -0.735000
     12 C7          -2.0930    -1.3820     0.6520 c3         1 F34       0.133800
     13 N1          -0.8070    -2.1210     0.5510 n7         1 F34      -0.875400
     14 C2           0.4470    -1.3980     0.8950 c3         1 F34       0.146800
     15 H91C         5.3990    -0.0140    -0.4280 hc         1 F34       0.060033
     16 H92C         4.4410     1.5240    -0.3630 hc         1 F34       0.060033
     17 H93C         4.6280     0.6340     1.0810 hc         1 F34       0.060033
     18 H2           2.2260     1.2590     0.6830 hn         1 F34       0.321500
     19 H3           0.6020    -0.3740    -1.0100 h1         1 F34       0.095700
     20 H4          -0.5880     0.8810     1.4480 h1         1 F34       0.041700
     21 H21C         1.2920    -2.0850     0.7550 h1         1 F34       0.040200
     22 H22C         0.4450    -1.1230     1.9590 h1         1 F34       0.040200
     23 HA          -0.5020     2.9550     0.3150 ho         1 F34       0.522000
     24 H5          -1.3850     1.2900    -1.4640 h1         1 F34       0.052700
     25 HB          -3.4380     1.4090    -0.0770 ho         1 F34       0.470000
     26 H6          -1.8370    -0.9340    -1.4360 h1         1 F34       0.060700
     27 HC          -4.0590    -1.1140    -1.1750 ho         1 F34       0.516000
     28 H71C        -2.1650    -0.8200     1.5930 h1         1 F34       0.041200
     29 H72C        -2.9130    -2.1130     0.6530 h1         1 F34       0.041200
     30 H1          -0.8660    -2.9400     1.1740 hn         1 F34       0.425000
@<TRIPOS>BOND
     1     1     2 2   
     2     2     3 1   
     3     2     4 1   
     4     3    15 1   
     5     3    16 1   
     6     3    17 1   
     7     4     5 1   
     8     4    18 1   
     9     5     6 1   
    10     5    14 1   
    11     5    19 1   
    12     6     7 1   
    13     6     8 1   
    14     6    20 1   
    15     7    23 1   
    16     8     9 1   
    17     8    10 1   
    18     8    24 1   
    19     9    25 1   
    20    10    11 1   
    21    10    12 1   
    22    10    26 1   
    23    11    27 1   
    24    12    13 1   
    25    12    28 1   
    26    12    29 1   
    27    13    14 1   
    28    13    30 1   
    29    14    21 1   
    30    14    22 1   
@<TRIPOS>SUBSTRUCTURE
     1 F34         1 TEMP              0 ****  ****    0 ROOT
