@<TRIPOS>MOLECULE
F35
   39    42     1     0     0
SMALL
No Charge or Current Charge


@<TRIPOS>ATOM
      1 O1          -4.8770    -2.2170     0.2880 o          1 F35      -0.547000
      2 C2          -5.0670    -1.1290    -0.2240 c          1 F35       0.618000
      3 N           -5.7980    -0.9030    -1.3500 ns         1 F35      -0.521900
      4 C1          -5.8280     0.5380    -1.7020 c5         1 F35       0.009000
      5 C           -4.9710     1.1660    -0.5670 c          1 F35       0.560000
      6 O           -4.6710     2.3350    -0.3670 o          1 F35      -0.504000
      7 N1          -4.6010     0.0840     0.2110 n          1 F35      -0.390400
      8 C3          -3.7500     0.2220     1.4070 c3         1 F35       0.162300
      9 C4          -2.2640     0.1520     1.0830 ca         1 F35      -0.099300
     10 C5          -1.5360     1.3250     0.8200 ca         1 F35      -0.094500
     11 C6          -0.1650     1.2600     0.5160 ca         1 F35      -0.080000
     12 C9          -1.6020    -1.0880     1.0450 ca         1 F35      -0.094500
     13 C8          -0.2310    -1.1580     0.7410 ca         1 F35      -0.080000
     14 C7           0.5060     0.0160     0.4490 ca         1 F35      -0.143900
     15 C10          1.9520    -0.0360     0.1660 cc         1 F35       0.560500
     16 N3           2.4020    -1.1830    -0.4340 ns         1 F35      -0.427400
     17 C17          3.6830    -1.4280    -0.7820 c          1 F35       0.578600
     18 O2           4.0180    -2.4750    -1.3130 o          1 F35      -0.538000
     19 N2           2.7330     1.0070     0.4600 nd         1 F35      -0.630100
     20 C11          4.0900     0.8410     0.1350 ca         1 F35       0.190400
     21 C12          4.6130    -0.3200    -0.4660 ca         1 F35      -0.204600
     22 C16          4.9650     1.9020     0.4320 ca         1 F35      -0.105000
     23 C15          6.3360     1.8130     0.1400 ca         1 F35      -0.075000
     24 C14          6.8490     0.6520    -0.4580 ca         1 F35      -0.134000
     25 C13          5.9900    -0.4160    -0.7620 ca         1 F35      -0.040000
     26 H           -6.2370    -1.6770    -1.8370 hn         1 F35       0.355500
     27 H11C        -5.3560     0.7530    -2.6690 h1         1 F35       0.082700
     28 H12C        -6.8370     0.9670    -1.6700 h1         1 F35       0.082700
     29 H31C        -3.9720     1.1770     1.9000 h1         1 F35       0.076200
     30 H32C        -4.0040    -0.5680     2.1260 h1         1 F35       0.076200
     31 H5          -2.0320     2.2940     0.8500 ha         1 F35       0.132500
     32 H9          -2.1500    -2.0050     1.2580 ha         1 F35       0.132500
     33 H6           0.3710     2.1860     0.3190 ha         1 F35       0.128500
     34 H8           0.2490    -2.1340     0.7490 ha         1 F35       0.128500
     35 H3           1.7380    -1.9070    -0.6600 hn         1 F35       0.332500
     36 H16          4.5740     2.8050     0.8960 ha         1 F35       0.132000
     37 H13          6.3940    -1.3130    -1.2280 ha         1 F35       0.135000
     38 H15          6.9990     2.6430     0.3770 ha         1 F35       0.117000
     39 H14          7.9100     0.5790    -0.6860 ha         1 F35       0.120000
@<TRIPOS>BOND
     1     1     2 2   
     2     2     3 1   
     3     2     7 1   
     4     3     4 1   
     5     3    26 1   
     6     4     5 1   
     7     4    27 1   
     8     4    28 1   
     9     5     6 2   
    10     5     7 1   
    11     7     8 1   
    12     8     9 1   
    13     8    29 1   
    14     8    30 1   
    15     9    10 ar  
    16     9    12 ar  
    17    10    11 ar  
    18    10    31 1   
    19    11    14 ar  
    20    11    33 1   
    21    12    13 ar  
    22    12    32 1   
    23    13    14 ar  
    24    13    34 1   
    25    14    15 1   
    26    15    16 1   
    27    15    19 2   
    28    16    17 1   
    29    16    35 1   
    30    17    18 2   
    31    17    21 1   
    32    19    20 1   
    33    20    21 ar  
    34    20    22 ar  
    35    21    25 ar  
    36    22    23 ar  
    37    22    36 1   
    38    23    24 ar  
    39    23    38 1   
    40    24    25 ar  
    41    24    39 1   
    42    25    37 1   
@<TRIPOS>SUBSTRUCTURE
     1 F35         1 TEMP              0 ****  ****    0 ROOT
