@<TRIPOS>MOLECULE
F35
   39    42     1     0     0
SMALL
abcg2


@<TRIPOS>ATOM
      1 O1          -4.7440    -2.1850     0.2050 o          1 F35      -0.547000
      2 C2          -4.9490    -1.1010    -0.2950 c          1 F35       0.618000
      3 N           -5.6030    -0.8070    -1.4310 ns         1 F35      -0.521900
      4 C1          -5.6630     0.6030    -1.6940 c5         1 F35       0.009000
      5 C           -4.8860     1.1780    -0.5310 c          1 F35       0.560000
      6 O           -4.6330     2.3410    -0.3220 o          1 F35      -0.504000
      7 N1          -4.5210     0.1190     0.2470 n          1 F35      -0.390400
      8 C3          -3.7190     0.2190     1.4500 c3         1 F35       0.162300
      9 C4          -2.2460     0.1280     1.1480 ca         1 F35      -0.099300
     10 C5          -1.5090     1.2740     0.8640 ca         1 F35      -0.094500
     11 C6          -0.1640     1.1910     0.5500 ca         1 F35      -0.080000
     12 C9          -1.6040    -1.1060     1.1210 ca         1 F35      -0.094500
     13 C8          -0.2600    -1.1960     0.7990 ca         1 F35      -0.080000
     14 C7           0.4730    -0.0480     0.5030 ca         1 F35      -0.143900
     15 C10          1.9080    -0.1050     0.1680 cc         1 F35       0.560500
     16 N3           2.3790    -1.2590    -0.3880 ns         1 F35      -0.427400
     17 C17          3.6940    -1.4790    -0.7350 c          1 F35       0.578600
     18 O2           4.0490    -2.5360    -1.2240 o          1 F35      -0.538000
     19 N2           2.6580     0.9130     0.4050 nd         1 F35      -0.630100
     20 C11          3.9900     0.8220     0.0890 ca         1 F35       0.190400
     21 C12          4.5580    -0.3370    -0.4640 ca         1 F35      -0.204600
     22 C16          4.8180     1.9260     0.3390 ca         1 F35      -0.105000
     23 C15          6.1620     1.8640     0.0460 ca         1 F35      -0.075000
     24 C14          6.7220     0.7050    -0.5050 ca         1 F35      -0.134000
     25 C13          5.9230    -0.3880    -0.7590 ca         1 F35      -0.040000
     26 H           -6.0380    -1.5100    -2.0050 hn         1 F35       0.355500
     27 H11C        -5.1920     0.8800    -2.6400 h1         1 F35       0.082700
     28 H12C        -6.6840     0.9910    -1.6940 h1         1 F35       0.082700
     29 H31C        -3.9580     1.1680     1.9290 h1         1 F35       0.076200
     30 H32C        -4.0270    -0.5740     2.1300 h1         1 F35       0.076200
     31 H5          -1.9900     2.2440     0.8890 ha         1 F35       0.132500
     32 H9          -2.1530    -2.0070     1.3590 ha         1 F35       0.132500
     33 H6           0.3970     2.0900     0.3320 ha         1 F35       0.128500
     34 H8           0.2080    -2.1720     0.8140 ha         1 F35       0.128500
     35 H3           1.7300    -2.0060    -0.6030 hn         1 F35       0.332500
     36 H16          4.3810     2.8200     0.7660 ha         1 F35       0.132000
     37 H13          6.3440    -1.2880    -1.1850 ha         1 F35       0.135000
     38 H15          6.7940     2.7200     0.2450 ha         1 F35       0.117000
     39 H14          7.7790     0.6690    -0.7300 ha         1 F35       0.120000
@<TRIPOS>BOND
     1     1     2 2   
     2     2     3 1   
     3     2     7 1   
     4     3     4 1   
     5     3    26 1   
     6     4     5 1   
     7     4    27 1   
     8     4    28 1   
     9     5     6 2   
    10     5     7 1   
    11     7     8 1   
    12     8     9 1   
    13     8    29 1   
    14     8    30 1   
    15     9    10 ar  
    16     9    12 ar  
    17    10    11 ar  
    18    10    31 1   
    19    11    14 ar  
    20    11    33 1   
    21    12    13 ar  
    22    12    32 1   
    23    13    14 ar  
    24    13    34 1   
    25    14    15 1   
    26    15    16 1   
    27    15    19 2   
    28    16    17 1   
    29    16    35 1   
    30    17    18 2   
    31    17    21 1   
    32    19    20 1   
    33    20    21 ar  
    34    20    22 ar  
    35    21    25 ar  
    36    22    23 ar  
    37    22    36 1   
    38    23    24 ar  
    39    23    38 1   
    40    24    25 ar  
    41    24    39 1   
    42    25    37 1   
@<TRIPOS>SUBSTRUCTURE
     1 F35         1 TEMP              0 ****  ****    0 ROOT
