@<TRIPOS>MOLECULE
F36
   32    34     1     0     0
SMALL
No Charge or Current Charge


@<TRIPOS>ATOM
      1 O1          -2.8750    -2.6810    -0.6120 o          1 F36      -0.534000
      2 C13         -2.4390    -1.5680    -0.3630 c          1 F36       0.578600
      3 N1          -1.1140    -1.3200    -0.2930 ns         1 F36      -0.427400
      4 C6          -0.5520    -0.1000    -0.0160 cc         1 F36       0.554500
      5 C3           0.9230    -0.0600     0.0010 ca         1 F36      -0.125900
      6 C2           1.6870    -1.1860     0.3860 ca         1 F36      -0.088500
      7 C1           3.0910    -1.1220     0.4340 ca         1 F36      -0.072500
      8 O            5.9360    -0.8850     0.4940 o          1 F36      -0.516100
      9 C5           3.0130     1.2050    -0.2430 ca         1 F36      -0.072500
     10 C4           1.6100     1.1410    -0.2900 ca         1 F36      -0.088500
     11 N           -1.2580     1.0140     0.1960 nd         1 F36      -0.628100
     12 C7          -2.6520     0.8510     0.1460 ca         1 F36       0.187400
     13 C20          3.7760     0.0710     0.1150 ca         1 F36      -0.156600
     14 C8          -3.2860    -0.3790    -0.1170 ca         1 F36      -0.202600
     15 C12         -3.4490     1.9880     0.3730 ca         1 F36      -0.104000
     16 C11         -4.8520     1.9070     0.3420 ca         1 F36      -0.074000
     17 C10         -5.4750     0.6780     0.0810 ca         1 F36      -0.132000
     18 C9          -4.6950    -0.4660    -0.1490 ca         1 F36      -0.040000
     19 CAA          5.2930     0.1090     0.1760 c          1 F36       0.581700
     20 C            6.0330     1.4040    -0.1660 c3         1 F36      -0.195100
     21 H1          -0.5080    -2.1030    -0.4830 hn         1 F36       0.332500
     22 H4           1.0560     2.0350    -0.5680 ha         1 F36       0.131000
     23 H2           1.2050    -2.1200     0.6670 ha         1 F36       0.131000
     24 H5           3.4900     2.1510    -0.4880 ha         1 F36       0.130500
     25 HA           3.6440    -2.0110     0.7300 ha         1 F36       0.130500
     26 H12         -2.9730     2.9440     0.5770 ha         1 F36       0.132000
     27 H9          -5.1850    -1.4170    -0.3530 ha         1 F36       0.136000
     28 H11         -5.4530     2.7970     0.5210 ha         1 F36       0.118000
     29 H10         -6.5600     0.6110     0.0560 ha         1 F36       0.121000
     30 HC1          5.7330     1.7350    -1.1660 hc         1 F36       0.064033
     31 HC2          5.6620     2.2090     0.4780 hc         1 F36       0.064033
     32 HC3          7.1220     1.2990    -0.0880 hc         1 F36       0.064033
@<TRIPOS>BOND
     1     1     2 2   
     2     2     3 1   
     3     2    14 1   
     4     3     4 1   
     5     3    21 1   
     6     4     5 1   
     7     4    11 2   
     8     5     6 ar  
     9     5    10 ar  
    10     6     7 ar  
    11     6    23 1   
    12     7    13 ar  
    13     7    25 1   
    14     8    19 2   
    15     9    10 ar  
    16     9    13 ar  
    17     9    24 1   
    18    10    22 1   
    19    11    12 1   
    20    12    14 ar  
    21    12    15 ar  
    22    13    19 1   
    23    14    18 ar  
    24    15    16 ar  
    25    15    26 1   
    26    16    17 ar  
    27    16    28 1   
    28    17    18 ar  
    29    17    29 1   
    30    18    27 1   
    31    19    20 1   
    32    20    30 1   
    33    20    31 1   
    34    20    32 1   
@<TRIPOS>SUBSTRUCTURE
     1 F36         1 TEMP              0 ****  ****    0 ROOT
