@<TRIPOS>MOLECULE
F36
   32    34     1     0     0
SMALL
abcg2


@<TRIPOS>ATOM
      1 O1          -2.9200    -2.7010    -0.5440 o          1 F36      -0.534000
      2 C13         -2.4720    -1.5930    -0.3170 c          1 F36       0.578600
      3 N1          -1.1120    -1.3730    -0.2580 ns         1 F36      -0.427400
      4 C6          -0.5370    -0.1610    -0.0090 cc         1 F36       0.554500
      5 C3           0.9370    -0.1010     0.0360 ca         1 F36      -0.125900
      6 C2           1.7100    -1.2140     0.3680 ca         1 F36      -0.088500
      7 C1           3.0890    -1.1200     0.4020 ca         1 F36      -0.072500
      8 O            5.8630    -0.8560     0.3850 o          1 F36      -0.516100
      9 C5           2.9500     1.1930    -0.2220 ca         1 F36      -0.072500
     10 C4           1.5700     1.1060    -0.2510 ca         1 F36      -0.088500
     11 N           -1.2190     0.9120     0.1830 nd         1 F36      -0.628100
     12 C7          -2.5890     0.8250     0.1350 ca         1 F36       0.187400
     13 C20          3.7280     0.0820     0.1020 ca         1 F36      -0.156600
     14 C8          -3.2590    -0.3860    -0.0990 ca         1 F36      -0.202600
     15 C12         -3.3430     1.9900     0.3330 ca         1 F36      -0.104000
     16 C11         -4.7190     1.9370     0.2950 ca         1 F36      -0.074000
     17 C10         -5.3820     0.7260     0.0590 ca         1 F36      -0.132000
     18 C9          -4.6550    -0.4270    -0.1370 ca         1 F36      -0.040000
     19 CAA          5.2200     0.1410     0.1360 c          1 F36       0.581700
     20 C            5.8850     1.4590    -0.1410 c3         1 F36      -0.195100
     21 H1          -0.5220    -2.1700    -0.4570 hn         1 F36       0.332500
     22 H4           0.9810     1.9740    -0.5090 ha         1 F36       0.131000
     23 H2           1.2520    -2.1580     0.6300 ha         1 F36       0.131000
     24 H5           3.4110     2.1420    -0.4630 ha         1 F36       0.130500
     25 HA           3.6710    -1.9920     0.6700 ha         1 F36       0.130500
     26 H12         -2.8260     2.9220     0.5180 ha         1 F36       0.132000
     27 H9          -5.1570    -1.3670    -0.3240 ha         1 F36       0.136000
     28 H11         -5.2940     2.8400     0.4520 ha         1 F36       0.118000
     29 H10         -6.4630     0.6990     0.0320 ha         1 F36       0.121000
     30 HC1          5.5900     1.8540    -1.1150 hc         1 F36       0.064033
     31 HC2          5.5950     2.2000     0.6060 hc         1 F36       0.064033
     32 HC3          6.9660     1.3470    -0.1200 hc         1 F36       0.064033
@<TRIPOS>BOND
     1     1     2 2   
     2     2     3 1   
     3     2    14 1   
     4     3     4 1   
     5     3    21 1   
     6     4     5 1   
     7     4    11 2   
     8     5     6 ar  
     9     5    10 ar  
    10     6     7 ar  
    11     6    23 1   
    12     7    13 ar  
    13     7    25 1   
    14     8    19 2   
    15     9    10 ar  
    16     9    13 ar  
    17     9    24 1   
    18    10    22 1   
    19    11    12 1   
    20    12    14 ar  
    21    12    15 ar  
    22    13    19 1   
    23    14    18 ar  
    24    15    16 ar  
    25    15    26 1   
    26    16    17 ar  
    27    16    28 1   
    28    17    18 ar  
    29    17    29 1   
    30    18    27 1   
    31    19    20 1   
    32    20    30 1   
    33    20    31 1   
    34    20    32 1   
@<TRIPOS>SUBSTRUCTURE
     1 F36         1 TEMP              0 ****  ****    0 ROOT
