@<TRIPOS>MOLECULE
F37
   39    42     1     0     0
SMALL
No Charge or Current Charge


@<TRIPOS>ATOM
      1 O           -5.9930    -2.6170    -0.5260 o          1 F37      -0.537000
      2 C2          -5.3580    -1.5970    -0.3460 c          1 F37       0.618000
      3 N1          -5.3150    -0.5280    -1.1430 ns         1 F37      -0.481500
      4 C3          -4.5560     0.5190    -0.7580 c          1 F37       0.569000
      5 O1          -4.4230     1.5620    -1.3800 o          1 F37      -0.494000
      6 N           -4.5490    -1.3150     0.7100 ns         1 F37      -0.519900
      7 C1          -3.9400     0.0370     0.6090 c5         1 F37       0.080700
      8 C           -4.4650     0.9240     1.7660 c3         1 F37      -0.096100
      9 C4          -2.4010     0.0320     0.5280 ca         1 F37      -0.075300
     10 C5          -1.6560    -1.1680     0.5410 ca         1 F37      -0.094000
     11 C6          -0.2530    -1.1500     0.4610 ca         1 F37      -0.075500
     12 C9          -1.6920     1.2460     0.4130 ca         1 F37      -0.094000
     13 C8          -0.2890     1.2680     0.3340 ca         1 F37      -0.075500
     14 C7           0.4570     0.0680     0.3810 ca         1 F37      -0.140900
     15 C10          1.9270     0.0710     0.2590 cc         1 F37       0.558500
     16 N3           2.5640     1.1820     0.7470 ns         1 F37      -0.427400
     17 C17          3.9000     1.3780     0.7380 c          1 F37       0.578600
     18 O2           4.4060     2.3940     1.1880 o          1 F37      -0.536000
     19 N2           2.5590    -0.9810    -0.2680 nd         1 F37      -0.628100
     20 C11          3.9580    -0.8640    -0.3220 ca         1 F37       0.189400
     21 C12          4.6670     0.2580     0.1460 ca         1 F37      -0.203600
     22 C16          4.6790    -1.9370    -0.8790 ca         1 F37      -0.104000
     23 C15          6.0810    -1.8960    -0.9710 ca         1 F37      -0.074000
     24 C14          6.7800    -0.7730    -0.5020 ca         1 F37      -0.132000
     25 C13          6.0750     0.3050     0.0570 ca         1 F37      -0.040000
     26 H1          -5.8410    -0.5030    -2.0020 hn         1 F37       0.359500
     27 H           -4.4500    -1.9840     1.4640 hn         1 F37       0.350500
     28 HC1         -5.5600     0.8910     1.8250 hc         1 F37       0.056700
     29 HC2         -4.0690     0.5840     2.7300 hc         1 F37       0.056700
     30 HC3         -4.1780     1.9740     1.6380 hc         1 F37       0.056700
     31 H5          -2.1530    -2.1320     0.6100 ha         1 F37       0.129000
     32 H9          -2.2300     2.1910     0.3700 ha         1 F37       0.129000
     33 H6           0.2830    -2.0980     0.4730 ha         1 F37       0.130500
     34 H8           0.2050     2.2300     0.2190 ha         1 F37       0.130500
     35 H3           2.0140     1.9130     1.1680 hn         1 F37       0.331500
     36 H16          4.1450    -2.8100    -1.2450 ha         1 F37       0.132000
     37 H13          6.6240     1.1720     0.4200 ha         1 F37       0.136000
     38 H15          6.6230    -2.7340    -1.4050 ha         1 F37       0.118000
     39 H14          7.8650    -0.7380    -0.5710 ha         1 F37       0.120000
@<TRIPOS>BOND
     1     1     2 2   
     2     2     3 1   
     3     2     6 1   
     4     3     4 1   
     5     3    26 1   
     6     4     5 2   
     7     4     7 1   
     8     6     7 1   
     9     6    27 1   
    10     7     8 1   
    11     7     9 1   
    12     8    28 1   
    13     8    29 1   
    14     8    30 1   
    15     9    10 ar  
    16     9    12 ar  
    17    10    11 ar  
    18    10    31 1   
    19    11    14 ar  
    20    11    33 1   
    21    12    13 ar  
    22    12    32 1   
    23    13    14 ar  
    24    13    34 1   
    25    14    15 1   
    26    15    16 1   
    27    15    19 2   
    28    16    17 1   
    29    16    35 1   
    30    17    18 2   
    31    17    21 1   
    32    19    20 1   
    33    20    21 ar  
    34    20    22 ar  
    35    21    25 ar  
    36    22    23 ar  
    37    22    36 1   
    38    23    24 ar  
    39    23    38 1   
    40    24    25 ar  
    41    24    39 1   
    42    25    37 1   
@<TRIPOS>SUBSTRUCTURE
     1 F37         1 TEMP              0 ****  ****    0 ROOT
