@<TRIPOS>MOLECULE
F37
   39    42     1     0     0
SMALL
abcg2


@<TRIPOS>ATOM
      1 O           -5.8560    -2.7230    -0.3580 o          1 F37      -0.537000
      2 C2          -5.2260    -1.6960    -0.2510 c          1 F37       0.618000
      3 N1          -5.2020    -0.6640    -1.1870 ns         1 F37      -0.481500
      4 C3          -4.4550     0.3950    -0.7850 c          1 F37       0.569000
      5 O1          -4.2690     1.4280    -1.3770 o          1 F37      -0.494000
      6 N           -4.4170    -1.3080     0.7570 ns         1 F37      -0.519900
      7 C1          -3.8900     0.0250     0.5950 c5         1 F37       0.080700
      8 C           -4.4500     0.9740     1.6560 c3         1 F37      -0.096100
      9 C4          -2.3720     0.0530     0.5270 ca         1 F37      -0.075300
     10 C5          -1.6340    -1.1240     0.4370 ca         1 F37      -0.094000
     11 C6          -0.2520    -1.0890     0.3580 ca         1 F37      -0.075500
     12 C9          -1.6920     1.2680     0.5210 ca         1 F37      -0.094000
     13 C8          -0.3100     1.3050     0.4460 ca         1 F37      -0.075500
     14 C7           0.4280     0.1260     0.3700 ca         1 F37      -0.140900
     15 C10          1.8990     0.1270     0.2860 cc         1 F37       0.558500
     16 N3           2.5590     1.2010     0.8090 ns         1 F37      -0.427400
     17 C17          3.9280     1.3610     0.7920 c          1 F37       0.578600
     18 O2           4.4510     2.3470     1.2790 o          1 F37      -0.536000
     19 N2           2.5070    -0.8650    -0.2640 nd         1 F37      -0.628100
     20 C11          3.8770    -0.8290    -0.3300 ca         1 F37       0.189400
     21 C12          4.6290     0.2500     0.1630 ca         1 F37      -0.203600
     22 C16          4.5510    -1.9070    -0.9210 ca         1 F37      -0.104000
     23 C15          5.9250    -1.8990    -1.0130 ca         1 F37      -0.074000
     24 C14          6.6690    -0.8190    -0.5210 ca         1 F37      -0.132000
     25 C13          6.0220     0.2470     0.0640 ca         1 F37      -0.040000
     26 H1          -5.7080    -0.7070    -2.0600 hn         1 F37       0.359500
     27 H           -4.3820    -1.8100     1.6310 hn         1 F37       0.350500
     28 HC1         -5.5390     0.9290     1.6640 hc         1 F37       0.056700
     29 HC2         -4.0840     0.6830     2.6400 hc         1 F37       0.056700
     30 HC3         -4.1560     2.0040     1.4720 hc         1 F37       0.056700
     31 H5          -2.1340    -2.0830     0.4350 ha         1 F37       0.129000
     32 H9          -2.2300     2.2040     0.5700 ha         1 F37       0.129000
     33 H6           0.3040    -2.0140     0.2950 ha         1 F37       0.130500
     34 H8           0.1740     2.2730     0.4200 ha         1 F37       0.130500
     35 H3           2.0330     1.9250     1.2800 hn         1 F37       0.331500
     36 H16          3.9730    -2.7380    -1.3040 ha         1 F37       0.132000
     37 H13          6.5870     1.0860     0.4500 ha         1 F37       0.136000
     38 H15          6.4350    -2.7360    -1.4700 ha         1 F37       0.118000
     39 H14          7.7470    -0.8250    -0.6010 ha         1 F37       0.120000
@<TRIPOS>BOND
     1     1     2 2   
     2     2     3 1   
     3     2     6 1   
     4     3     4 1   
     5     3    26 1   
     6     4     5 2   
     7     4     7 1   
     8     6     7 1   
     9     6    27 1   
    10     7     8 1   
    11     7     9 1   
    12     8    28 1   
    13     8    29 1   
    14     8    30 1   
    15     9    10 ar  
    16     9    12 ar  
    17    10    11 ar  
    18    10    31 1   
    19    11    14 ar  
    20    11    33 1   
    21    12    13 ar  
    22    12    32 1   
    23    13    14 ar  
    24    13    34 1   
    25    14    15 1   
    26    15    16 1   
    27    15    19 2   
    28    16    17 1   
    29    16    35 1   
    30    17    18 2   
    31    17    21 1   
    32    19    20 1   
    33    20    21 ar  
    34    20    22 ar  
    35    21    25 ar  
    36    22    23 ar  
    37    22    36 1   
    38    23    24 ar  
    39    23    38 1   
    40    24    25 ar  
    41    24    39 1   
    42    25    37 1   
@<TRIPOS>SUBSTRUCTURE
     1 F37         1 TEMP              0 ****  ****    0 ROOT
