@<TRIPOS>MOLECULE
F38
   35    37     1     0     0
SMALL
abcg2


@<TRIPOS>ATOM
      1 OAD        -51.7990   -43.3680    22.9160 o          1 F38      -0.546000
      2 OAB        -53.0020   -43.1030    25.0860 o          1 F38      -0.546000
      3 CAF        -55.4500   -43.0330    20.9860 ca         1 F38      -0.098000
      4 CAG        -55.6470   -43.1740    19.6230 ca         1 F38      -0.071500
      5 CAJ        -53.4700   -41.7380    20.5720 ca         1 F38      -0.098000
      6 CAI        -53.6630   -41.8750    19.2050 ca         1 F38      -0.071500
      7 CAH        -54.7590   -42.5920    18.7140 ca         1 F38      -0.144900
      8 CAK        -55.0080   -42.7500    17.2660 cc         1 F38       0.561500
      9 CAT        -55.9460   -43.8370    15.4730 ca         1 F38       0.189400
     10 CAS        -56.7430   -44.8910    14.9930 ca         1 F38      -0.106000
     11 CAR        -56.9730   -45.0280    13.6390 ca         1 F38      -0.074000
     12 CAQ        -56.4170   -44.1250    12.7210 ca         1 F38      -0.133000
     13 CAP        -55.6310   -43.0840    13.1730 ca         1 F38      -0.039000
     14 CAO        -55.3910   -42.9310    14.5440 ca         1 F38      -0.200600
     15 CAM        -54.5800   -41.8280    15.0450 c          1 F38       0.576600
     16 N10        -53.7790   -44.7980    23.3730 n8         1 F38      -1.048100
     17 N1         -54.4510   -41.8220    16.4230 ns         1 F38      -0.428400
     18 OAN        -54.0490   -40.9540    14.3670 o          1 F38      -0.540000
     19 N          -55.7340   -43.7310    16.8320 nd         1 F38      -0.632100
     20 C          -54.1560   -42.1510    22.9510 c3         1 F38      -0.253100
     21 S          -53.0370   -43.3680    23.6630 s6         1 F38       1.200100
     22 C1         -54.3620   -42.3090    21.4770 ca         1 F38      -0.044300
     23 HAF        -56.1520   -43.4790    21.6800 ha         1 F38       0.125000
     24 HAG        -56.4970   -43.7270    19.2490 ha         1 F38       0.130000
     25 HAJ        -52.6150   -41.1840    20.9380 ha         1 F38       0.125000
     26 HAI        -52.9370   -41.4340    18.5350 ha         1 F38       0.130000
     27 H1         -53.9330   -41.0430    16.8070 hn         1 F38       0.331500
     28 HAS        -57.1680   -45.5840    15.7070 ha         1 F38       0.132000
     29 HAR        -57.5900   -45.8430    13.2810 ha         1 F38       0.117000
     30 HAQ        -56.6050   -44.2450    11.6620 ha         1 F38       0.121000
     31 HAP        -55.1950   -42.3750    12.4830 ha         1 F38       0.136000
     32 H101       -53.1740   -45.4800    22.9320 hn         1 F38       0.493000
     33 H102       -54.2990   -45.1620    24.1620 hn         1 F38       0.493000
     34 HC1        -55.0850   -42.2570    23.5110 h1         1 F38       0.105700
     35 HC2        -53.6950   -41.1950    23.2030 h1         1 F38       0.105700
@<TRIPOS>BOND
     1     1    21 2   
     2     2    21 2   
     3     3     4 ar  
     4     3    22 ar  
     5     3    23 1   
     6     4     7 ar  
     7     4    24 1   
     8     5     6 ar  
     9     5    22 ar  
    10     5    25 1   
    11     6     7 ar  
    12     6    26 1   
    13     7     8 1   
    14     8    17 1   
    15     8    19 2   
    16     9    10 ar  
    17     9    14 ar  
    18     9    19 1   
    19    10    11 ar  
    20    10    28 1   
    21    11    12 ar  
    22    11    29 1   
    23    12    13 ar  
    24    12    30 1   
    25    13    14 ar  
    26    13    31 1   
    27    14    15 1   
    28    15    17 1   
    29    15    18 2   
    30    16    21 1   
    31    16    32 1   
    32    16    33 1   
    33    17    27 1   
    34    20    21 1   
    35    20    22 1   
    36    20    34 1   
    37    20    35 1   
@<TRIPOS>SUBSTRUCTURE
     1 F38         1 TEMP              0 ****  ****    0 ROOT
