@<TRIPOS>MOLECULE
F38
   35    37     1     0     0
SMALL
No Charge or Current Charge


@<TRIPOS>ATOM
      1 OAD        -51.8650   -43.6620    22.9370 o          1 F38      -0.546000
      2 OAB        -52.9770   -43.2080    25.1760 o          1 F38      -0.546000
      3 CAF        -55.4860   -42.9490    21.0260 ca         1 F38      -0.098000
      4 CAG        -55.7230   -43.0940    19.6490 ca         1 F38      -0.071500
      5 CAJ        -53.4170   -41.7790    20.5500 ca         1 F38      -0.098000
      6 CAI        -53.6510   -41.9210    19.1710 ca         1 F38      -0.071500
      7 CAH        -54.8210   -42.5630    18.6970 ca         1 F38      -0.144900
      8 CAK        -55.0620   -42.7530    17.2550 cc         1 F38       0.561500
      9 CAT        -55.9490   -43.8620    15.4320 ca         1 F38       0.189400
     10 CAS        -56.6890   -44.9440    14.9190 ca         1 F38      -0.106000
     11 CAR        -56.9000   -45.0860    13.5370 ca         1 F38      -0.074000
     12 CAQ        -56.3700   -44.1380    12.6490 ca         1 F38      -0.133000
     13 CAP        -55.6310   -43.0520    13.1440 ca         1 F38      -0.039000
     14 CAO        -55.4220   -42.9160    14.5340 ca         1 F38      -0.200600
     15 CAM        -54.6520   -41.7770    15.0850 c          1 F38       0.576600
     16 N10        -53.9950   -44.7330    23.5360 n8         1 F38      -1.048100
     17 N1         -54.5390   -41.7920    16.4300 ns         1 F38      -0.428400
     18 OAN        -54.1590   -40.8890    14.4060 o          1 F38      -0.540000
     19 N          -55.7810   -43.7940    16.8250 nd         1 F38      -0.632100
     20 C          -54.0800   -42.1260    22.9810 c3         1 F38      -0.253100
     21 S          -53.0640   -43.4070    23.7310 s6         1 F38       1.200100
     22 C1         -54.3330   -42.2910    21.4850 ca         1 F38      -0.044300
     23 HAF        -56.1990   -43.3570    21.7390 ha         1 F38       0.125000
     24 HAG        -56.6230   -43.6140    19.3250 ha         1 F38       0.130000
     25 HAJ        -52.5140   -41.2770    20.8900 ha         1 F38       0.125000
     26 HAI        -52.9040   -41.5370    18.4790 ha         1 F38       0.130000
     27 H1         -54.0450   -41.0160    16.8390 hn         1 F38       0.331500
     28 HAS        -57.1020   -45.6830    15.6010 ha         1 F38       0.132000
     29 HAR        -57.4740   -45.9280    13.1560 ha         1 F38       0.117000
     30 HAQ        -56.5310   -44.2430    11.5780 ha         1 F38       0.121000
     31 HAP        -55.2240   -42.3190    12.4500 ha         1 F38       0.136000
     32 H101       -53.4320   -45.2490    22.8650 hn         1 F38       0.493000
     33 H102       -53.7990   -45.2300    24.4020 hn         1 F38       0.493000
     34 HC1        -55.0220   -42.1280    23.5380 h1         1 F38       0.105700
     35 HC2        -53.5580   -41.1840    23.1780 h1         1 F38       0.105700
@<TRIPOS>BOND
     1     1    21 2   
     2     2    21 2   
     3     3     4 ar  
     4     3    22 ar  
     5     3    23 1   
     6     4     7 ar  
     7     4    24 1   
     8     5     6 ar  
     9     5    22 ar  
    10     5    25 1   
    11     6     7 ar  
    12     6    26 1   
    13     7     8 1   
    14     8    17 1   
    15     8    19 2   
    16     9    10 ar  
    17     9    14 ar  
    18     9    19 1   
    19    10    11 ar  
    20    10    28 1   
    21    11    12 ar  
    22    11    29 1   
    23    12    13 ar  
    24    12    30 1   
    25    13    14 ar  
    26    13    31 1   
    27    14    15 1   
    28    15    17 1   
    29    15    18 2   
    30    16    21 1   
    31    16    32 1   
    32    16    33 1   
    33    17    27 1   
    34    20    21 1   
    35    20    22 1   
    36    20    34 1   
    37    20    35 1   
@<TRIPOS>SUBSTRUCTURE
     1 F38         1 TEMP              0 ****  ****    0 ROOT
