@<TRIPOS>MOLECULE
F39
  151   152     1     0     0
SMALL
No Charge or Current Charge


@<TRIPOS>ATOM
      1 C10        207.3250   247.0990   219.2540 c6         1 F39       0.148300
      2 C11        209.7400   245.9450   217.8730 c6         1 F39       0.408300
      3 C12        207.6200   245.5690   219.0210 c6         1 F39       0.155300
      4 C14        212.1130   243.2170   218.9680 c3         1 F39      -0.071400
      5 C15        206.3190   244.7000   218.9490 c3         1 F39       0.187600
      6 C16        211.9570   244.2900   216.6160 c3         1 F39      -0.116600
      7 C17        210.0120   242.8900   217.5270 c3         1 F39      -0.116600
      8 C18        213.0000   242.0100   218.5460 c3         1 F39      -0.069400
      9 C19        214.4350   242.3910   218.1030 c3         1 F39      -0.045200
     10 C20        215.2400   241.1870   217.6310 c2         1 F39      -0.097400
     11 C21        205.5160   245.0280   216.6030 c          1 F39       0.617100
     12 C22        206.3020   243.7840   216.1140 c3         1 F39      -0.186400
     13 C23        206.8550   243.8710   214.6680 c3         1 F39      -0.057400
     14 C24        207.8860   245.0080   214.4550 c3         1 F39      -0.078400
     15 C25        214.8450   240.7380   216.2290 c3         1 F39      -0.058900
     16 C8         208.3300   248.0120   218.4620 c6         1 F39       0.104300
     17 C9         209.7520   247.3810   218.5610 c6         1 F39       0.117300
     18 C26        208.5070   245.0490   213.0390 c3         1 F39      -0.075400
     19 C27        216.1990   240.6190   218.4050 ce         1 F39      -0.191000
     20 C28        209.4800   243.8800   212.7430 c3         1 F39      -0.075400
     21 C29        210.1990   243.9780   211.3730 c3         1 F39      -0.071400
     22 C30        209.2810   243.9670   210.1240 c3         1 F39      -0.073400
     23 C31        208.4150   242.6940   209.9760 c3         1 F39      -0.075400
     24 C32        217.0310   239.4410   218.0960 ce         1 F39      -0.166000
     25 C33        207.5920   242.6710   208.6690 c3         1 F39      -0.077400
     26 C34        206.7240   241.4020   208.5250 c3         1 F39      -0.074400
     27 C35        216.6580   238.3450   217.3720 cf         1 F39      -0.178000
     28 C36        205.9060   241.3740   207.2190 c3         1 F39      -0.088100
     29 C37        217.4690   237.1580   217.0790 cf         1 F39      -0.063200
     30 C38        218.9790   237.2700   217.2710 c3         1 F39      -0.056900
     31 C39        216.8730   236.0310   216.5870 ce         1 F39      -0.179000
     32 C40        217.5260   234.7600   216.2320 ce         1 F39      -0.173000
     33 C41        216.8700   233.6960   215.6880 cf         1 F39      -0.174000
     34 C42        217.4400   232.3970   215.3150 cf         1 F39      -0.066200
     35 C43        218.9580   232.3060   215.1760 c3         1 F39      -0.055900
     36 C44        216.6120   231.3430   215.0430 ce         1 F39      -0.173000
     37 C45        214.9490   220.5930   212.0430 ca         1 F39      -0.056300
     38 C46        213.7060   221.2430   211.8060 ca         1 F39      -0.054800
     39 C47        215.2770   219.4230   211.3090 ca         1 F39      -0.083300
     40 C48        212.8230   220.7430   210.8190 ca         1 F39      -0.065300
     41 C49        214.3850   218.9390   210.3360 ca         1 F39      -0.102000
     42 C50        213.1730   219.5960   210.0890 ca         1 F39      -0.113000
     43 C51        217.0140   229.9770   214.6530 ce         1 F39      -0.173000
     44 C53        213.3050   222.4510   212.5850 ce         1 F39      -0.148200
     45 C54        216.5810   218.6630   211.5410 c3         1 F39      -0.045800
     46 C55        211.4830   221.4190   210.5420 c3         1 F39      -0.047800
     47 C56        213.2010   222.5750   213.9390 cf         1 F39      -0.183000
     48 C57        216.1880   228.9490   214.3030 cf         1 F39      -0.166000
     49 C58        212.7580   223.7620   214.6710 cf         1 F39      -0.069200
     50 C59        214.7260   228.9720   214.2380 cf         1 F39      -0.183000
     51 C60        211.7470   223.4760   215.7680 c3         1 F39      -0.054900
     52 C61        213.1390   225.0530   214.4190 ce         1 F39      -0.182000
     53 C62        213.9250   227.9530   213.8130 ce         1 F39      -0.057200
     54 C63        214.0910   225.4100   213.5040 cf         1 F39      -0.167000
     55 C64        214.4700   226.7000   213.2550 ce         1 F39      -0.175000
     56 C65        212.4150   228.1390   213.7590 c3         1 F39      -0.055900
     57 O1         208.4070   245.3700   217.8300 os         1 F39      -0.472000
     58 O2         210.6540   245.0320   218.5420 os         1 F39      -0.469000
     59 O3         207.9310   248.1740   217.0860 oh         1 F39      -0.637000
     60 O4         210.1080   247.3510   219.9670 oh         1 F39      -0.683000
     61 O5         207.4380   247.3690   220.6700 oh         1 F39      -0.714000
     62 O6         205.3800   245.2110   217.9660 os         1 F39      -0.459100
     63 O7         204.9200   245.7550   215.8230 o          1 F39      -0.445000
     64 H1         206.3090   247.3350   218.9030 h1         1 F39       0.080700
     65 H2         210.0680   246.0980   216.8360 h2         1 F39       0.068700
     66 H3         208.2060   245.1850   219.8690 h1         1 F39       0.082700
     67 H4         211.4780   242.8890   219.8000 hc         1 F39       0.055700
     68 H5         212.7580   243.9990   219.3860 hc         1 F39       0.055700
     69 H6         205.8540   244.7580   219.9410 h1         1 F39       0.062700
     70 H7         206.5650   243.6420   218.7970 h1         1 F39       0.062700
     71 H8         212.7340   245.0220   216.8680 hc         1 F39       0.042367
     72 H9         212.4350   243.4290   216.1360 hc         1 F39       0.042367
     73 H10        211.2950   244.7310   215.8630 hc         1 F39       0.042367
     74 H11        209.3380   242.7560   218.3810 hc         1 F39       0.042367
     75 H12        209.4340   243.2720   216.6800 hc         1 F39       0.042367
     76 H13        210.3810   241.9020   217.2310 hc         1 F39       0.042367
     77 H14        212.5090   241.4340   217.7550 hc         1 F39       0.042200
     78 H15        213.0870   241.3310   219.4030 hc         1 F39       0.042200
     79 H16        214.9400   242.8690   218.9510 hc         1 F39       0.046700
     80 H17        214.4060   243.1550   217.3190 hc         1 F39       0.046700
     81 H19        207.0980   243.4940   216.7980 hc         1 F39       0.068200
     82 H20        205.6070   242.9400   216.1890 hc         1 F39       0.068200
     83 H21        206.0220   244.0000   213.9660 hc         1 F39       0.044700
     84 H22        207.3190   242.9070   214.4270 hc         1 F39       0.044700
     85 H23        208.6920   244.9190   215.1900 hc         1 F39       0.048200
     86 H24        207.4000   245.9720   214.6460 hc         1 F39       0.048200
     87 H25        214.5040   241.5770   215.6110 hc         1 F39       0.042033
     88 H26        215.6880   240.2860   215.6950 hc         1 F39       0.042033
     89 H27        214.0310   240.0040   216.2640 hc         1 F39       0.042033
     90 H28        208.3480   249.0030   218.9400 h1         1 F39       0.031700
     91 H29        210.4650   248.0160   218.0160 h1         1 F39       0.035700
     92 H30        207.7000   245.0630   212.2980 hc         1 F39       0.040700
     93 H31        209.0530   245.9950   212.9280 hc         1 F39       0.040700
     94 H32        216.4210   241.0770   219.3700 ha         1 F39       0.170000
     95 H34        210.2460   243.8550   213.5280 hc         1 F39       0.034200
     96 H35        208.9490   242.9240   212.8040 hc         1 F39       0.034200
     97 H36        210.8010   244.8940   211.3560 hc         1 F39       0.036200
     98 H37        210.9090   243.1450   211.2930 hc         1 F39       0.036200
     99 H38        208.6320   244.8510   210.1350 hc         1 F39       0.037700
    100 H39        209.9160   244.0650   209.2350 hc         1 F39       0.037700
    101 H40        209.0650   241.8100   210.0080 hc         1 F39       0.036700
    102 H41        207.7260   242.6190   210.8260 hc         1 F39       0.036700
    103 H42        218.0190   239.4490   218.5590 ha         1 F39       0.168000
    104 H44        206.9450   243.5560   208.6360 hc         1 F39       0.036700
    105 H45        208.2740   242.7400   207.8120 hc         1 F39       0.036700
    106 H46        207.3680   240.5140   208.5600 hc         1 F39       0.036200
    107 H47        206.0360   241.3320   209.3770 hc         1 F39       0.036200
    108 H48        215.6350   238.3140   216.9970 ha         1 F39       0.173000
    109 H50        205.3070   240.4570   207.1620 hc         1 F39       0.031700
    110 H51        205.2250   242.2320   207.1690 hc         1 F39       0.031700
    111 H52        206.5680   241.4050   206.3450 hc         1 F39       0.031700
    112 H54        219.2750   236.9410   218.2750 hc         1 F39       0.042367
    113 H55        219.5340   236.6680   216.5440 hc         1 F39       0.042367
    114 H56        219.3370   238.2960   217.1340 hc         1 F39       0.042367
    115 H57        215.7910   236.0540   216.4470 ha         1 F39       0.169000
    116 H59        218.5910   234.6720   216.4430 ha         1 F39       0.173000
    117 H61        215.7960   233.8080   215.5230 ha         1 F39       0.170000
    118 H64        219.4210   231.9790   216.1140 hc         1 F39       0.042033
    119 H65        219.2600   231.6070   214.3890 hc         1 F39       0.042033
    120 H66        219.4050   233.2670   214.8960 hc         1 F39       0.042033
    121 H67        215.5420   231.5200   215.1390 ha         1 F39       0.170000
    122 H69        214.6300   218.0480   209.7630 ha         1 F39       0.110000
    123 H70        212.5000   219.2030   209.3300 ha         1 F39       0.111000
    124 H71        218.0820   229.7600   214.6500 ha         1 F39       0.170000
    125 H73        216.9800   220.9670   212.7990 hc         1 F39       0.043033
    126 H74        215.8530   222.2440   213.1760 hc         1 F39       0.043033
    127 H75        215.7660   220.7120   214.0620 hc         1 F39       0.043033
    128 H76        213.0220   223.3050   211.9690 ha         1 F39       0.181000
    129 H78        216.7400   218.4600   212.6070 hc         1 F39       0.040700
    130 H79        216.5850   217.6950   211.0270 hc         1 F39       0.040700
    131 H80        217.4410   219.2330   211.1700 hc         1 F39       0.040700
    132 H81        211.6260   222.4090   210.0940 hc         1 F39       0.042033
    133 H82        210.8650   220.8330   209.8510 hc         1 F39       0.042033
    134 H83        210.9040   221.5460   211.4650 hc         1 F39       0.042033
    135 H84        213.4010   221.6860   214.5400 ha         1 F39       0.177000
    136 H86        216.6710   228.0030   214.0490 ha         1 F39       0.170000
    137 H89        214.2270   229.8810   214.5740 ha         1 F39       0.169000
    138 H91        211.0060   224.2790   215.8530 hc         1 F39       0.042700
    139 H92        211.1950   222.5470   215.5790 hc         1 F39       0.042700
    140 H93        212.2420   223.3750   216.7410 hc         1 F39       0.042700
    141 H94        212.6760   225.8310   215.0230 ha         1 F39       0.175000
    142 H97        214.6220   224.6330   212.9540 ha         1 F39       0.172000
    143 H99        215.2880   226.8370   212.5460 ha         1 F39       0.169000
    144 H101       212.1520   229.1300   213.3680 hc         1 F39       0.042033
    145 H102       211.9340   227.4000   213.1060 hc         1 F39       0.042033
    146 H103       211.9660   228.0530   214.7550 hc         1 F39       0.042033
    147 H104       208.3420   249.0040   216.7580 ho         1 F39       0.443000
    148 H105       209.2380   247.2990   220.4470 ho         1 F39       0.503000
    149 H106       206.6690   247.9360   220.9220 ho         1 F39       0.507000
    150 C13        211.1790   243.8470   217.8840 c3         1 F39       0.197000
    151 C52        215.9370   221.1560   213.0750 c3         1 F39      -0.050800
@<TRIPOS>BOND
     1     1     3 1   
     2     1    16 1   
     3     1    61 1   
     4     1    64 1   
     5     2    17 1   
     6     2    57 1   
     7     2    58 1   
     8     2    65 1   
     9     3     5 1   
    10     3    57 1   
    11     3    66 1   
    12     4     8 1   
    13     4    67 1   
    14     4    68 1   
    15     4   150 1   
    16     5    62 1   
    17     5    69 1   
    18     5    70 1   
    19     6    71 1   
    20     6    72 1   
    21     6    73 1   
    22     6   150 1   
    23     7    74 1   
    24     7    75 1   
    25     7    76 1   
    26     7   150 1   
    27     8     9 1   
    28     8    77 1   
    29     8    78 1   
    30     9    10 1   
    31     9    79 1   
    32     9    80 1   
    33    10    15 1   
    34    10    19 2   
    35    11    12 1   
    36    11    62 1   
    37    11    63 2   
    38    12    13 1   
    39    12    81 1   
    40    12    82 1   
    41    13    14 1   
    42    13    83 1   
    43    13    84 1   
    44    14    18 1   
    45    14    85 1   
    46    14    86 1   
    47    15    87 1   
    48    15    88 1   
    49    15    89 1   
    50    16    17 1   
    51    16    59 1   
    52    16    90 1   
    53    17    60 1   
    54    17    91 1   
    55    18    20 1   
    56    18    92 1   
    57    18    93 1   
    58    19    24 1   
    59    19    94 1   
    60    20    21 1   
    61    20    95 1   
    62    20    96 1   
    63    21    22 1   
    64    21    97 1   
    65    21    98 1   
    66    22    23 1   
    67    22    99 1   
    68    22   100 1   
    69    23    25 1   
    70    23   101 1   
    71    23   102 1   
    72    24    27 2   
    73    24   103 1   
    74    25    26 1   
    75    25   104 1   
    76    25   105 1   
    77    26    28 1   
    78    26   106 1   
    79    26   107 1   
    80    27    29 1   
    81    27   108 1   
    82    28   109 1   
    83    28   110 1   
    84    28   111 1   
    85    29    30 1   
    86    29    31 2   
    87    30   112 1   
    88    30   113 1   
    89    30   114 1   
    90    31    32 1   
    91    31   115 1   
    92    32    33 2   
    93    32   116 1   
    94    33    34 1   
    95    33   117 1   
    96    34    35 1   
    97    34    36 2   
    98    35   118 1   
    99    35   119 1   
   100    35   120 1   
   101    36    43 1   
   102    36   121 1   
   103    37    38 ar  
   104    37    39 ar  
   105    37   151 1   
   106    38    40 ar  
   107    38    44 1   
   108    39    41 ar  
   109    39    45 1   
   110    40    42 ar  
   111    40    46 1   
   112    41    42 ar  
   113    41   122 1   
   114    42   123 1   
   115    43    48 2   
   116    43   124 1   
   117    44    47 2   
   118    44   128 1   
   119    45   129 1   
   120    45   130 1   
   121    45   131 1   
   122    46   132 1   
   123    46   133 1   
   124    46   134 1   
   125    47    49 1   
   126    47   135 1   
   127    48    50 1   
   128    48   136 1   
   129    49    51 1   
   130    49    52 2   
   131    50    53 2   
   132    50   137 1   
   133    51   138 1   
   134    51   139 1   
   135    51   140 1   
   136    52    54 1   
   137    52   141 1   
   138    53    55 1   
   139    53    56 1   
   140    54    55 2   
   141    54   142 1   
   142    55   143 1   
   143    56   144 1   
   144    56   145 1   
   145    56   146 1   
   146    58   150 1   
   147    59   147 1   
   148    60   148 1   
   149    61   149 1   
   150   125   151 1   
   151   126   151 1   
   152   127   151 1   
@<TRIPOS>SUBSTRUCTURE
     1 F39         1 TEMP              0 ****  ****    0 ROOT
