@<TRIPOS>MOLECULE
F39
  151   152     1     0     0
SMALL
abcg2


@<TRIPOS>ATOM
      1 C10        208.9990   248.9500   217.9630 c6         1 F39       0.148300
      2 C11        210.8260   246.9050   216.8290 c6         1 F39       0.408300
      3 C12        208.9440   247.4340   218.1910 c6         1 F39       0.155300
      4 C14        212.4020   243.8850   218.1170 c3         1 F39      -0.071400
      5 C15        207.5510   246.9160   218.4880 c3         1 F39       0.187600
      6 C16        212.9040   244.8750   215.8380 c3         1 F39      -0.116600
      7 C17        210.6140   244.0150   216.3520 c3         1 F39      -0.116600
      8 C18        212.9880   242.5000   217.8100 c3         1 F39      -0.069400
      9 C19        214.5160   242.4880   217.6830 c3         1 F39      -0.045200
     10 C20        215.0700   241.1040   217.5010 c2         1 F39      -0.097400
     11 C21        206.2410   246.3850   216.4940 c          1 F39       0.617100
     12 C22        206.7710   244.9730   216.4920 c3         1 F39      -0.186400
     13 C23        206.5340   244.2240   215.1870 c3         1 F39      -0.057400
     14 C24        207.2820   244.8120   213.9920 c3         1 F39      -0.078400
     15 C25        214.7300   240.4290   216.2060 c3         1 F39      -0.058900
     16 C8         210.1980   249.3190   217.0690 c6         1 F39       0.104300
     17 C9         211.3350   248.3050   217.2210 c6         1 F39       0.117300
     18 C26        207.3540   243.8630   212.7970 c3         1 F39      -0.075400
     19 C27        215.8230   240.5550   218.4710 ce         1 F39      -0.191000
     20 C28        208.3660   242.7360   212.9780 c3         1 F39      -0.075400
     21 C29        208.4820   241.8070   211.7720 c3         1 F39      -0.071400
     22 C30        207.2250   241.0060   211.4380 c3         1 F39      -0.073400
     23 C31        206.7710   240.0720   212.5540 c3         1 F39      -0.075400
     24 C32        216.4500   239.2470   218.5400 ce         1 F39      -0.166000
     25 C33        205.6360   239.1450   212.1340 c3         1 F39      -0.077400
     26 C34        205.1800   238.2090   213.2460 c3         1 F39      -0.074400
     27 C35        216.0590   238.0930   217.9600 cf         1 F39      -0.178000
     28 C36        204.0600   237.2740   212.8130 c3         1 F39      -0.088100
     29 C37        216.7460   236.8230   218.1110 cf         1 F39      -0.063200
     30 C38        217.9900   236.7890   218.9480 c3         1 F39      -0.056900
     31 C39        216.2290   235.7280   217.4960 ce         1 F39      -0.179000
     32 C40        216.7460   234.3890   217.5470 ce         1 F39      -0.173000
     33 C41        216.1800   233.3470   216.8950 cf         1 F39      -0.174000
     34 C42        216.6590   231.9830   216.9290 cf         1 F39      -0.066200
     35 C43        217.8600   231.6820   217.7760 c3         1 F39      -0.055900
     36 C44        216.0000   231.0510   216.1900 ce         1 F39      -0.173000
     37 C45        215.2260   221.0540   211.2030 ca         1 F39      -0.056300
     38 C46        215.0340   222.2010   210.4140 ca         1 F39      -0.054800
     39 C47        215.9950   219.9900   210.7020 ca         1 F39      -0.083300
     40 C48        215.6500   222.3090   209.1520 ca         1 F39      -0.065300
     41 C49        216.5760   220.1040   209.4460 ca         1 F39      -0.102000
     42 C50        216.4140   221.2520   208.6850 ca         1 F39      -0.113000
     43 C51        216.3180   229.6540   216.0950 ce         1 F39      -0.173000
     44 C53        214.1960   223.3300   210.8490 ce         1 F39      -0.148200
     45 C54        216.1990   218.7370   211.5050 c3         1 F39      -0.045800
     46 C55        215.4630   223.5340   208.3020 c3         1 F39      -0.047800
     47 C56        212.9450   223.2290   211.3160 cf         1 F39      -0.183000
     48 C57        215.6850   228.7250   215.3340 cf         1 F39      -0.166000
     49 C58        212.0850   224.3500   211.6930 cf         1 F39      -0.069200
     50 C59        214.5720   228.9540   214.4550 cf         1 F39      -0.183000
     51 C60        210.6610   224.2320   211.2330 c3         1 F39      -0.054900
     52 C61        212.4880   225.4230   212.4110 ce         1 F39      -0.182000
     53 C62        213.9180   228.0370   213.6900 ce         1 F39      -0.057200
     54 C63        213.7790   225.5730   213.0430 cf         1 F39      -0.167000
     55 C64        214.3460   226.6520   213.6300 ce         1 F39      -0.175000
     56 C65        212.7500   228.5080   212.8690 c3         1 F39      -0.055900
     57 O1         209.4430   246.7690   217.0540 os         1 F39      -0.472000
     58 O2         211.5530   245.9610   217.5310 os         1 F39      -0.469000
     59 O3         209.7420   249.3690   215.7370 oh         1 F39      -0.637000
     60 O4         211.8110   248.2850   218.5430 oh         1 F39      -0.683000
     61 O5         209.0490   249.5490   219.2350 oh         1 F39      -0.714000
     62 O6         206.6220   247.2320   217.4550 os         1 F39      -0.459100
     63 O7         205.4440   246.7970   215.6910 o          1 F39      -0.445000
     64 H1         208.1020   249.2710   217.4180 h1         1 F39       0.080700
     65 H2         210.9400   246.7900   215.7460 h2         1 F39       0.068700
     66 H3         209.5390   247.1950   219.0830 h1         1 F39       0.082700
     67 H4         211.5870   243.7750   218.8380 hc         1 F39       0.055700
     68 H5         213.1660   244.4900   218.6160 hc         1 F39       0.055700
     69 H6         207.1820   247.4140   219.3850 h1         1 F39       0.062700
     70 H7         207.5800   245.8460   218.6980 h1         1 F39       0.062700
     71 H8         213.8090   245.3400   216.2320 hc         1 F39       0.042367
     72 H9         213.1790   243.9140   215.4010 hc         1 F39       0.042367
     73 H10        212.5300   245.4950   215.0210 hc         1 F39       0.042367
     74 H11        209.8440   243.8740   217.1120 hc         1 F39       0.042367
     75 H12        210.1840   244.5830   215.5270 hc         1 F39       0.042367
     76 H13        210.8720   243.0340   215.9530 hc         1 F39       0.042367
     77 H14        212.5360   242.0720   216.9100 hc         1 F39       0.042200
     78 H15        212.7180   241.8200   218.6220 hc         1 F39       0.042200
     79 H16        214.9440   242.9450   218.5790 hc         1 F39       0.046700
     80 H17        214.8200   243.1120   216.8360 hc         1 F39       0.046700
     81 H19        207.8370   244.9660   216.7160 hc         1 F39       0.068200
     82 H20        206.2900   244.4430   217.3220 hc         1 F39       0.068200
     83 H21        205.4660   244.1690   214.9620 hc         1 F39       0.044700
     84 H22        206.8600   243.1940   215.3530 hc         1 F39       0.044700
     85 H23        208.3010   245.0810   214.2930 hc         1 F39       0.048200
     86 H24        206.8020   245.7430   213.6890 hc         1 F39       0.048200
     87 H25        214.5690   241.1670   215.4190 hc         1 F39       0.042033
     88 H26        215.5160   239.7470   215.8800 hc         1 F39       0.042033
     89 H27        213.8100   239.8430   216.2820 hc         1 F39       0.042033
     90 H28        210.5680   250.3070   217.3870 h1         1 F39       0.031700
     91 H29        212.1470   248.5670   216.5240 h1         1 F39       0.035700
     92 H30        206.3560   243.4550   212.6020 hc         1 F39       0.040700
     93 H31        207.6240   244.4310   211.9010 hc         1 F39       0.040700
     94 H32        216.0410   241.1890   219.3270 ha         1 F39       0.170000
     95 H34        209.3480   243.1820   213.1670 hc         1 F39       0.034200
     96 H35        208.1310   242.1540   213.8740 hc         1 F39       0.034200
     97 H36        208.7710   242.3980   210.8970 hc         1 F39       0.036200
     98 H37        209.3050   241.1050   211.9460 hc         1 F39       0.036200
     99 H38        206.4040   241.6780   211.1720 hc         1 F39       0.037700
    100 H39        207.4240   240.4130   210.5390 hc         1 F39       0.037700
    101 H40        207.6230   239.4700   212.8900 hc         1 F39       0.036700
    102 H41        206.4510   240.6530   213.4240 hc         1 F39       0.036700
    103 H42        217.3220   239.2170   219.1860 ha         1 F39       0.168000
    104 H44        204.7850   239.7430   211.7900 hc         1 F39       0.036700
    105 H45        205.9560   238.5520   211.2700 hc         1 F39       0.036700
    106 H46        206.0340   237.6210   213.5950 hc         1 F39       0.036200
    107 H47        204.8500   238.8020   214.1050 hc         1 F39       0.036200
    108 H48        215.1530   238.0710   217.3640 ha         1 F39       0.173000
    109 H50        203.7500   236.6150   213.6250 hc         1 F39       0.031700
    110 H51        203.1810   237.8350   212.4900 hc         1 F39       0.031700
    111 H52        204.3720   236.6440   211.9780 hc         1 F39       0.031700
    112 H54        217.7790   237.0950   219.9750 hc         1 F39       0.042367
    113 H55        218.4520   235.8070   218.9900 hc         1 F39       0.042367
    114 H56        218.7380   237.4840   218.5610 hc         1 F39       0.042367
    115 H57        215.3270   235.8660   216.9040 ha         1 F39       0.169000
    116 H59        217.6310   234.2090   218.1450 ha         1 F39       0.173000
    117 H61        215.2950   233.5330   216.2910 ha         1 F39       0.170000
    118 H64        217.6840   231.9640   218.8160 hc         1 F39       0.042033
    119 H65        218.1380   230.6320   217.7660 hc         1 F39       0.042033
    120 H66        218.7270   232.2530   217.4380 hc         1 F39       0.042033
    121 H67        215.1490   231.4060   215.6170 ha         1 F39       0.170000
    122 H69        217.1690   219.2840   209.0580 ha         1 F39       0.110000
    123 H70        216.8820   221.3200   207.7100 ha         1 F39       0.111000
    124 H71        217.1460   229.2900   216.6900 ha         1 F39       0.170000
    125 H73        215.3730   220.4620   213.2650 hc         1 F39       0.043033
    126 H74        214.3900   221.8960   213.0140 hc         1 F39       0.043033
    127 H75        213.7580   220.3100   212.6050 hc         1 F39       0.043033
    128 H76        214.6130   224.3230   210.7050 ha         1 F39       0.181000
    129 H78        215.2510   218.2890   211.8090 hc         1 F39       0.040700
    130 H79        216.7490   217.9930   210.9310 hc         1 F39       0.040700
    131 H80        216.7640   218.9280   212.4210 hc         1 F39       0.040700
    132 H81        215.8520   224.4310   208.7880 hc         1 F39       0.042033
    133 H82        215.9810   223.4280   207.3500 hc         1 F39       0.042033
    134 H83        214.4090   223.7220   208.0890 hc         1 F39       0.042033
    135 H84        212.4790   222.2470   211.3560 ha         1 F39       0.177000
    136 H86        216.0690   227.7150   215.4150 ha         1 F39       0.170000
    137 H89        214.2010   229.9720   214.3980 ha         1 F39       0.169000
    138 H91        210.0540   225.0720   211.5670 hc         1 F39       0.042700
    139 H92        210.6020   224.1810   210.1430 hc         1 F39       0.042700
    140 H93        210.2070   223.3130   211.6120 hc         1 F39       0.042700
    141 H94        211.7460   226.1900   212.5830 ha         1 F39       0.175000
    142 H97        214.3680   224.6630   213.0970 ha         1 F39       0.172000
    143 H99        215.2960   226.4420   214.1060 ha         1 F39       0.169000
    144 H101       212.7060   229.5960   212.8470 hc         1 F39       0.042033
    145 H102       212.8100   228.1520   211.8390 hc         1 F39       0.042033
    146 H103       211.8000   228.1550   213.2760 hc         1 F39       0.042033
    147 H104       210.4620   249.6760   215.1770 ho         1 F39       0.443000
    148 H105       211.9710   249.1930   218.8190 ho         1 F39       0.503000
    149 H106       208.8170   250.4780   219.1440 ho         1 F39       0.507000
    150 C13        211.8550   244.6900   216.9300 c3         1 F39       0.197000
    151 C52        214.6570   220.9320   212.5900 c3         1 F39      -0.050800
@<TRIPOS>BOND
     1     1     3 1   
     2     1    16 1   
     3     1    61 1   
     4     1    64 1   
     5     2    17 1   
     6     2    57 1   
     7     2    58 1   
     8     2    65 1   
     9     3     5 1   
    10     3    57 1   
    11     3    66 1   
    12     4     8 1   
    13     4    67 1   
    14     4    68 1   
    15     4   150 1   
    16     5    62 1   
    17     5    69 1   
    18     5    70 1   
    19     6    71 1   
    20     6    72 1   
    21     6    73 1   
    22     6   150 1   
    23     7    74 1   
    24     7    75 1   
    25     7    76 1   
    26     7   150 1   
    27     8     9 1   
    28     8    77 1   
    29     8    78 1   
    30     9    10 1   
    31     9    79 1   
    32     9    80 1   
    33    10    15 1   
    34    10    19 2   
    35    11    12 1   
    36    11    62 1   
    37    11    63 2   
    38    12    13 1   
    39    12    81 1   
    40    12    82 1   
    41    13    14 1   
    42    13    83 1   
    43    13    84 1   
    44    14    18 1   
    45    14    85 1   
    46    14    86 1   
    47    15    87 1   
    48    15    88 1   
    49    15    89 1   
    50    16    17 1   
    51    16    59 1   
    52    16    90 1   
    53    17    60 1   
    54    17    91 1   
    55    18    20 1   
    56    18    92 1   
    57    18    93 1   
    58    19    24 1   
    59    19    94 1   
    60    20    21 1   
    61    20    95 1   
    62    20    96 1   
    63    21    22 1   
    64    21    97 1   
    65    21    98 1   
    66    22    23 1   
    67    22    99 1   
    68    22   100 1   
    69    23    25 1   
    70    23   101 1   
    71    23   102 1   
    72    24    27 2   
    73    24   103 1   
    74    25    26 1   
    75    25   104 1   
    76    25   105 1   
    77    26    28 1   
    78    26   106 1   
    79    26   107 1   
    80    27    29 1   
    81    27   108 1   
    82    28   109 1   
    83    28   110 1   
    84    28   111 1   
    85    29    30 1   
    86    29    31 2   
    87    30   112 1   
    88    30   113 1   
    89    30   114 1   
    90    31    32 1   
    91    31   115 1   
    92    32    33 2   
    93    32   116 1   
    94    33    34 1   
    95    33   117 1   
    96    34    35 1   
    97    34    36 2   
    98    35   118 1   
    99    35   119 1   
   100    35   120 1   
   101    36    43 1   
   102    36   121 1   
   103    37    38 ar  
   104    37    39 ar  
   105    37   151 1   
   106    38    40 ar  
   107    38    44 1   
   108    39    41 ar  
   109    39    45 1   
   110    40    42 ar  
   111    40    46 1   
   112    41    42 ar  
   113    41   122 1   
   114    42   123 1   
   115    43    48 2   
   116    43   124 1   
   117    44    47 2   
   118    44   128 1   
   119    45   129 1   
   120    45   130 1   
   121    45   131 1   
   122    46   132 1   
   123    46   133 1   
   124    46   134 1   
   125    47    49 1   
   126    47   135 1   
   127    48    50 1   
   128    48   136 1   
   129    49    51 1   
   130    49    52 2   
   131    50    53 2   
   132    50   137 1   
   133    51   138 1   
   134    51   139 1   
   135    51   140 1   
   136    52    54 1   
   137    52   141 1   
   138    53    55 1   
   139    53    56 1   
   140    54    55 2   
   141    54   142 1   
   142    55   143 1   
   143    56   144 1   
   144    56   145 1   
   145    56   146 1   
   146    58   150 1   
   147    59   147 1   
   148    60   148 1   
   149    61   149 1   
   150   125   151 1   
   151   126   151 1   
   152   127   151 1   
@<TRIPOS>SUBSTRUCTURE
     1 F39         1 TEMP              0 ****  ****    0 ROOT
