@<TRIPOS>MOLECULE
F3B
   12    12     1     0     0
SMALL
No Charge or Current Charge


@<TRIPOS>ATOM
      1 Cl6         -3.2060     0.0360     0.0380 cl         1 F3B      -0.114667
      2 C6          -1.4380     0.0120     0.0230 ca         1 F3B      -0.004000
      3 C1          -0.7120     1.2180     0.0180 ca         1 F3B       0.248000
      4 F1          -1.3730     2.4000     0.0240 f          1 F3B      -0.129000
      5 C5          -0.7460    -1.2140     0.0170 ca         1 F3B       0.248000
      6 F5          -1.4390    -2.3770     0.0220 f          1 F3B      -0.129000
      7 C4           0.6620    -1.2400     0.0060 ca         1 F3B      -0.004000
      8 Cl4          1.5250    -2.7830    -0.0020 cl         1 F3B      -0.114667
      9 C3           1.3770    -0.0270     0.0010 ca         1 F3B       0.248000
     10 F3           2.7310    -0.0460    -0.0100 f          1 F3B      -0.129000
     11 C2           0.6960     1.2050     0.0070 ca         1 F3B      -0.004000
     12 Cl2          1.6000     2.7230     0.0010 cl         1 F3B      -0.114667
@<TRIPOS>BOND
     1     1     2 1   
     2     2     3 ar  
     3     2     5 ar  
     4     3     4 1   
     5     3    11 ar  
     6     5     6 1   
     7     5     7 ar  
     8     7     8 1   
     9     7     9 ar  
    10     9    10 1   
    11     9    11 ar  
    12    11    12 1   
@<TRIPOS>SUBSTRUCTURE
     1 F3B         1 TEMP              0 ****  ****    0 ROOT
