@<TRIPOS>MOLECULE
F3B
   12    12     1     0     0
SMALL
bcc


@<TRIPOS>ATOM
      1 CL6         -3.1270     0.0350     0.0370 cl         1 F3B      -0.023067
      2 C6          -1.4200     0.0110     0.0230 ca         1 F3B      -0.095600
      3 C1          -0.6980     1.1920     0.0180 ca         1 F3B       0.212900
      4 F1          -1.3430     2.3440     0.0240 f          1 F3B      -0.093900
      5 C5          -0.7300    -1.1890     0.0170 ca         1 F3B       0.212900
      6 F5          -1.4070    -2.3220     0.0220 f          1 F3B      -0.093900
      7 C4           0.6530    -1.2240     0.0060 ca         1 F3B      -0.095600
      8 CL4          1.4870    -2.7140    -0.0020 cl         1 F3B      -0.023067
      9 C3           1.3480    -0.0260     0.0010 ca         1 F3B       0.212900
     10 F3           2.6670    -0.0450    -0.0100 f          1 F3B      -0.093900
     11 C2           0.6870     1.1900     0.0070 ca         1 F3B      -0.095600
     12 CL2          1.5610     2.6550     0.0010 cl         1 F3B      -0.023067
@<TRIPOS>BOND
     1     1     2 1   
     2     2     3 ar  
     3     2     5 ar  
     4     3     4 1   
     5     3    11 ar  
     6     5     6 1   
     7     5     7 ar  
     8     7     8 1   
     9     7     9 ar  
    10     9    10 1   
    11     9    11 ar  
    12    11    12 1   
@<TRIPOS>SUBSTRUCTURE
     1 F3B         1 TEMP              0 ****  ****    0 ROOT
