@<TRIPOS>MOLECULE
F3C
   42    43     1     0     0
SMALL
No Charge or Current Charge


@<TRIPOS>ATOM
      1 C4          -5.6090    -3.0400    -0.0980 cc         1 F3C       0.734500
      2 N4          -6.1020    -4.1910     0.3100 nv         1 F3C      -1.068200
      3 C5          -5.9690    -2.5610    -1.3700 cc         1 F3C      -0.503600
      4 C6          -5.4350    -1.3650    -1.7860 cd         1 F3C      -0.051400
      5 N3          -4.8150    -2.4500     0.7200 nd         1 F3C      -0.803100
      6 C2          -4.2480    -1.2260     0.3450 c          1 F3C       0.723400
      7 O2          -3.5280    -0.6710     1.1590 o          1 F3C      -0.557000
      8 N1          -4.5650    -0.6910    -0.9320 n          1 F3C      -0.312000
      9 C1          -3.9440     0.5720    -1.4080 c5         1 F3C       0.344700
     10 C9          -4.7070     1.7710    -0.7590 c5         1 F3C      -0.146400
     11 C3          -3.5820     2.4850     0.0420 c5         1 F3C       0.119300
     12 O3          -3.8130     3.8950     0.1400 oh         1 F3C      -0.709000
     13 O4          -2.5580     0.7080    -1.0530 os         1 F3C      -0.388000
     14 C7          -2.3390     2.1140    -0.8200 c5         1 F3C       0.168300
     15 C8          -0.9740     2.3600    -0.1270 c3         1 F3C       0.243600
     16 O5           0.0670     2.2770    -1.1090 os         1 F3C      -0.559400
     17 PA           1.5970     2.3040    -0.6100 p5         1 F3C       1.464800
     18 O1A          1.7600     3.3550     0.4380 o          1 F3C      -0.874000
     19 O2A          2.4870     2.5420    -1.7860 o          1 F3C      -0.874000
     20 O3A          1.6490     0.8130    -0.1040 os         1 F3C      -0.705800
     21 PB           2.8080     0.5600     0.9420 p5         1 F3C       1.497400
     22 O1B          4.1520     1.0890     0.5510 o          1 F3C      -0.845000
     23 O2B          2.3860     1.0470     2.2970 o          1 F3C      -0.845000
     24 C3B          2.7150    -1.2650     1.0210 c3         1 F3C      -0.392700
     25 F4B          3.1120    -1.8040     2.2240 f          1 F3C      -0.288000
     26 PG           3.7000    -1.8370    -0.3970 p5         1 F3C       1.295500
     27 O1G          3.3650    -3.2830    -0.5690 o          1 F3C      -0.904833
     28 O2G          3.3800    -1.1230    -1.6630 o          1 F3C      -0.904833
     29 O3G          5.1580    -1.7510    -0.0860 o          1 F3C      -0.904833
     30 H1          -6.3860    -4.8240    -0.4250 hn         1 F3C       0.472500
     31 H2          -5.6000    -4.6010     1.0860 hn         1 F3C       0.472500
     32 H3          -6.6500    -3.1300    -1.9920 ha         1 F3C       0.163000
     33 H4          -5.6270    -0.8810    -2.7420 h4         1 F3C       0.174000
     34 H5          -4.0470     0.5990    -2.4990 h2         1 F3C       0.023700
     35 H6          -5.1240     2.4160    -1.5410 hc         1 F3C       0.033700
     36 H7          -5.5400     1.4670    -0.1150 hc         1 F3C       0.033700
     37 H8          -3.4820     2.0400     1.0440 h1         1 F3C       0.074700
     38 H9          -4.6730     4.0140     0.6060 ho         1 F3C       0.469000
     39 H10         -2.3570     2.6470    -1.7810 h1         1 F3C       0.058700
     40 H11         -0.9850     3.3600     0.3260 h1         1 F3C       0.016700
     41 H12         -0.8320     1.6210     0.6730 h1         1 F3C       0.016700
     42 H15          1.6730    -1.5480     0.8430 h1         1 F3C       0.036700
@<TRIPOS>BOND
     1     1     2 1   
     2     1     3 1   
     3     1     5 2   
     4     2    30 1   
     5     2    31 1   
     6     3     4 2   
     7     3    32 1   
     8     4     8 1   
     9     4    33 1   
    10     5     6 1   
    11     6     7 2   
    12     6     8 1   
    13     8     9 1   
    14     9    10 1   
    15     9    13 1   
    16     9    34 1   
    17    10    11 1   
    18    10    35 1   
    19    10    36 1   
    20    11    12 1   
    21    11    14 1   
    22    11    37 1   
    23    12    38 1   
    24    13    14 1   
    25    14    15 1   
    26    14    39 1   
    27    15    16 1   
    28    15    40 1   
    29    15    41 1   
    30    16    17 1   
    31    17    18 1   
    32    17    19 1   
    33    17    20 1   
    34    20    21 1   
    35    21    22 1   
    36    21    23 1   
    37    21    24 1   
    38    24    25 1   
    39    24    26 1   
    40    24    42 1   
    41    26    27 1   
    42    26    28 1   
    43    26    29 1   
@<TRIPOS>SUBSTRUCTURE
     1 F3C         1 TEMP              0 ****  ****    0 ROOT
