@<TRIPOS>MOLECULE
F3C
   42    43     1     0     0
SMALL
abcg2


@<TRIPOS>ATOM
      1 C4          -5.7610    -2.8350     0.1340 cc         1 F3C       0.734500
      2 N4          -6.2280    -3.9690     0.6570 nv         1 F3C      -1.068200
      3 C5          -5.6560    -2.7040    -1.2840 cc         1 F3C      -0.503600
      4 C6          -5.1740    -1.5310    -1.7380 cd         1 F3C      -0.051400
      5 N3          -5.4100    -1.8660     0.9550 nd         1 F3C      -0.803100
      6 C2          -4.9330    -0.6930     0.4890 c          1 F3C       0.723400
      7 O2          -4.6010     0.2200     1.2320 o          1 F3C      -0.557000
      8 N1          -4.8230    -0.5250    -0.9010 n          1 F3C      -0.312000
      9 C1          -4.2790     0.7040    -1.4660 c5         1 F3C       0.344700
     10 C9          -4.9870     2.0030    -1.0690 c5         1 F3C      -0.146400
     11 C3          -3.9530     2.7810    -0.2560 c5         1 F3C       0.119300
     12 O3          -3.9080     4.1620    -0.5240 oh         1 F3C      -0.709000
     13 O4          -2.9330     0.8270    -1.1010 os         1 F3C      -0.388000
     14 C7          -2.6320     2.1510    -0.6980 c5         1 F3C       0.168300
     15 C8          -1.5940     2.1330     0.3980 c3         1 F3C       0.243600
     16 O5          -0.4010     1.5690    -0.0940 os         1 F3C      -0.559400
     17 PA           0.9880     1.8260     0.7710 p5         1 F3C       1.464800
     18 O1A          0.6940     1.5950     2.2240 o          1 F3C      -0.874000
     19 O2A          1.5920     3.1270     0.3350 o          1 F3C      -0.874000
     20 O3A          1.7660     0.5600     0.1180 os         1 F3C      -0.705800
     21 PB           3.4380     0.4230    -0.0130 p5         1 F3C       1.497400
     22 O1B          3.8260     0.9610    -1.3610 o          1 F3C      -0.845000
     23 O2B          4.0350     0.9950     1.2410 o          1 F3C      -0.845000
     24 C3B          3.5280    -1.4020    -0.0450 c3         1 F3C      -0.392700
     25 F4B          3.1900    -1.8490     1.2570 f          1 F3C      -0.288000
     26 PG           5.1730    -2.1310    -0.5760 p5         1 F3C       1.295500
     27 O1G          5.1140    -3.5750    -0.0670 o          1 F3C      -0.904833
     28 O2G          5.1370    -2.0120    -2.1010 o          1 F3C      -0.904833
     29 O3G          6.2480    -1.2800     0.1020 o          1 F3C      -0.904833
     30 H1          -6.4930    -4.7450     0.0770 hn         1 F3C       0.472500
     31 H2          -6.2800    -4.0830     1.6550 hn         1 F3C       0.472500
     32 H3          -5.9350    -3.4960    -1.9620 ha         1 F3C       0.163000
     33 H4          -5.0500    -1.3410    -2.7960 h4         1 F3C       0.174000
     34 H5          -4.3580     0.5640    -2.5480 h2         1 F3C       0.023700
     35 H6          -5.2240     2.5620    -1.9760 hc         1 F3C       0.033700
     36 H7          -5.9210     1.8340    -0.5360 hc         1 F3C       0.033700
     37 H8          -4.1100     2.6010     0.8110 h1         1 F3C       0.074700
     38 H9          -4.6370     4.5820    -0.0590 ho         1 F3C       0.469000
     39 H10         -2.2470     2.7210    -1.5580 h1         1 F3C       0.058700
     40 H11         -1.4520     3.1700     0.7300 h1         1 F3C       0.016700
     41 H12         -1.9790     1.5650     1.2520 h1         1 F3C       0.016700
     42 H15          2.7470    -1.7840    -0.7140 h1         1 F3C       0.036700
@<TRIPOS>BOND
     1     1     2 1   
     2     1     3 1   
     3     1     5 2   
     4     2    30 1   
     5     2    31 1   
     6     3     4 2   
     7     3    32 1   
     8     4     8 1   
     9     4    33 1   
    10     5     6 1   
    11     6     7 2   
    12     6     8 1   
    13     8     9 1   
    14     9    10 1   
    15     9    13 1   
    16     9    34 1   
    17    10    11 1   
    18    10    35 1   
    19    10    36 1   
    20    11    12 1   
    21    11    14 1   
    22    11    37 1   
    23    12    38 1   
    24    13    14 1   
    25    14    15 1   
    26    14    39 1   
    27    15    16 1   
    28    15    40 1   
    29    15    41 1   
    30    16    17 1   
    31    17    18 1   
    32    17    19 1   
    33    17    20 1   
    34    20    21 1   
    35    21    22 1   
    36    21    23 1   
    37    21    24 1   
    38    24    25 1   
    39    24    26 1   
    40    24    42 1   
    41    26    27 1   
    42    26    28 1   
    43    26    29 1   
@<TRIPOS>SUBSTRUCTURE
     1 F3C         1 TEMP              0 ****  ****    0 ROOT
