@<TRIPOS>MOLECULE
F3D
   73    76     1     0     0
SMALL
bcc


@<TRIPOS>ATOM
      1 C1           5.0990    -2.5830    -0.0150 c3         1 F3D      -0.038200
      2 N1         -10.2990    -0.0970    -0.0950 n          1 F3D      -0.477800
      3 C2           3.7390    -1.9360     0.0120 ce         1 F3D      -0.042400
      4 N2           7.7020     3.0860    -0.3000 na         1 F3D      -0.013100
      5 C3           3.5290    -0.6160    -0.1630 cf         1 F3D       0.004600
      6 C4           2.1720    -0.0330    -0.2900 ca         1 F3D      -0.090800
      7 C5           1.2190    -0.5670    -1.1620 ca         1 F3D      -0.075000
      8 O1          -8.5160    -1.2780     0.6200 o          1 F3D      -0.599100
      9 C6          -0.0430    -0.0190    -1.2720 ca         1 F3D      -0.194500
     10 C7          -0.3990     1.0920    -0.5060 ca         1 F3D       0.150100
     11 C8          -2.1080     2.6190     0.1530 c3         1 F3D       0.139400
     12 C9          -3.5640     2.8630    -0.1670 c3         1 F3D       0.159800
     13 C10         -5.7940     1.9520    -0.1110 c3         1 F3D       0.155800
     14 C11         -6.6310     0.7270     0.2230 c3         1 F3D      -0.069400
     15 C12         -8.0970     0.9660    -0.1000 c3         1 F3D      -0.154400
     16 C13         -8.9800    -0.2360     0.1730 c          1 F3D       0.668100
     17 C14        -10.8450     1.0560    -0.7810 c3         1 F3D       0.085800
     18 C15        -11.1800    -1.2400     0.0260 c3         1 F3D       0.085800
     19 N           -4.3920     1.7280     0.1850 n7         1 F3D      -0.802200
     20 O           -1.6530     1.5560    -0.6690 os         1 F3D      -0.332900
     21 C16          0.5440     1.6540     0.3510 ca         1 F3D      -0.194500
     22 C17          1.8130     1.0950     0.4400 ca         1 F3D      -0.075000
     23 C            5.5240    -3.1460     1.3390 c3         1 F3D      -0.085100
     24 C25          2.6150    -2.8670     0.2840 ca         1 F3D      -0.053800
     25 C30          2.4190    -4.0070    -0.4950 ca         1 F3D      -0.116000
     26 C29          1.3780    -4.8840    -0.2240 ca         1 F3D      -0.130000
     27 C28          0.5240    -4.6450     0.8450 ca         1 F3D      -0.126000
     28 C27          0.7220    -3.5230     1.6400 ca         1 F3D      -0.130000
     29 C26          1.7570    -2.6440     1.3610 ca         1 F3D      -0.116000
     30 C18          4.6360     0.3680    -0.2490 ca         1 F3D      -0.088800
     31 C24          5.5610     0.4930     0.7680 ca         1 F3D      -0.043000
     32 C23          6.5740     1.4540     0.6520 ca         1 F3D      -0.237900
     33 C22          7.6710     1.8800     1.4470 cc         1 F3D       0.355800
     34 N3           8.3250     2.8490     0.8570 nd         1 F3D      -0.518100
     35 C21          6.6350     2.2760    -0.4850 ca         1 F3D      -0.037200
     36 C20          5.7000     2.1710    -1.5220 ca         1 F3D      -0.154000
     37 C19          4.7150     1.2250    -1.3770 ca         1 F3D      -0.073000
     38 H1           5.0800    -3.4030    -0.7400 hc         1 F3D       0.050200
     39 H2           5.8490    -1.8800    -0.3740 hc         1 F3D       0.050200
     40 H3           8.0510     3.8020    -0.9160 hn         1 F3D       0.324700
     41 H4           1.4680    -1.4280    -1.7690 ha         1 F3D       0.136000
     42 H5          -0.7650    -0.4490    -1.9570 ha         1 F3D       0.139000
     43 H6          -1.5300     3.5300    -0.0390 h1         1 F3D       0.044200
     44 H7          -1.9940     2.3600     1.2120 h1         1 F3D       0.044200
     45 H8          -3.8850     3.7280     0.4210 h1         1 F3D       0.038200
     46 H9          -3.6610     3.1590    -1.2240 h1         1 F3D       0.038200
     47 H10         -5.9600     2.2330    -1.1640 h1         1 F3D       0.023700
     48 H11         -6.1400     2.8040     0.4860 h1         1 F3D       0.023700
     49 H12         -6.2590    -0.1310    -0.3450 hc         1 F3D       0.064700
     50 H13         -6.5070     0.4820     1.2790 hc         1 F3D       0.064700
     51 H14         -8.4650     1.8230     0.4740 hc         1 F3D       0.055200
     52 H15         -8.2020     1.2540    -1.1510 hc         1 F3D       0.055200
     53 H16        -11.9080     1.1310    -0.5590 h1         1 F3D       0.040367
     54 H17        -10.3820     1.9820    -0.4480 h1         1 F3D       0.040367
     55 H18        -10.7320     0.9850    -1.8670 h1         1 F3D       0.040367
     56 H19        -11.2880    -1.7700    -0.9250 h1         1 F3D       0.040367
     57 H20        -10.8030    -1.9390     0.7660 h1         1 F3D       0.040367
     58 H21        -12.1670    -0.9050     0.3410 h1         1 F3D       0.040367
     59 H22         -4.0800     0.9190    -0.3390 hn         1 F3D       0.368800
     60 H24          0.3160     2.5250     0.9500 ha         1 F3D       0.139000
     61 H25          2.5300     1.5510     1.1110 ha         1 F3D       0.136000
     62 H26          5.5640    -2.3650     2.1000 hc         1 F3D       0.034700
     63 H27          4.8320    -3.9120     1.6900 hc         1 F3D       0.034700
     64 H28          6.5130    -3.5990     1.2740 hc         1 F3D       0.034700
     65 H29          3.0740    -4.2030    -1.3350 ha         1 F3D       0.131500
     66 H30          1.2350    -5.7560    -0.8500 ha         1 F3D       0.130500
     67 H31         -0.2840    -5.3320     1.0610 ha         1 F3D       0.130000
     68 H32          0.0680    -3.3350     2.4820 ha         1 F3D       0.130500
     69 H33          1.9020    -1.7730     1.9880 ha         1 F3D       0.131500
     70 H34          5.4990    -0.1360     1.6470 ha         1 F3D       0.141000
     71 H35          7.9880     1.5080     2.4100 h4         1 F3D       0.049800
     72 H36          5.7460     2.8060    -2.3970 ha         1 F3D       0.139000
     73 H37          3.9710     1.1210    -2.1570 ha         1 F3D       0.139000
@<TRIPOS>BOND
     1     1     3 1   
     2     1    23 1   
     3     1    38 1   
     4     1    39 1   
     5     2    16 1   
     6     2    17 1   
     7     2    18 1   
     8     3     5 2   
     9     3    24 1   
    10     4    34 1   
    11     4    35 1   
    12     4    40 1   
    13     5     6 1   
    14     5    30 1   
    15     6     7 ar  
    16     6    22 ar  
    17     7     9 ar  
    18     7    41 1   
    19     8    16 2   
    20     9    10 ar  
    21     9    42 1   
    22    10    20 1   
    23    10    21 ar  
    24    11    12 1   
    25    11    20 1   
    26    11    43 1   
    27    11    44 1   
    28    12    19 1   
    29    12    45 1   
    30    12    46 1   
    31    13    14 1   
    32    13    19 1   
    33    13    47 1   
    34    13    48 1   
    35    14    15 1   
    36    14    49 1   
    37    14    50 1   
    38    15    16 1   
    39    15    51 1   
    40    15    52 1   
    41    17    53 1   
    42    17    54 1   
    43    17    55 1   
    44    18    56 1   
    45    18    57 1   
    46    18    58 1   
    47    19    59 1   
    48    21    22 ar  
    49    21    60 1   
    50    22    61 1   
    51    23    62 1   
    52    23    63 1   
    53    23    64 1   
    54    24    25 ar  
    55    24    29 ar  
    56    25    26 ar  
    57    25    65 1   
    58    26    27 ar  
    59    26    66 1   
    60    27    28 ar  
    61    27    67 1   
    62    28    29 ar  
    63    28    68 1   
    64    29    69 1   
    65    30    31 ar  
    66    30    37 ar  
    67    31    32 ar  
    68    31    70 1   
    69    32    33 1   
    70    32    35 ar  
    71    33    34 2   
    72    33    71 1   
    73    35    36 ar  
    74    36    37 ar  
    75    36    72 1   
    76    37    73 1   
@<TRIPOS>SUBSTRUCTURE
     1 F3D         1 TEMP              0 ****  ****    0 ROOT
