@<TRIPOS>MOLECULE
F3D
   73    76     1     0     0
SMALL
No Charge or Current Charge


@<TRIPOS>ATOM
      1 C1           5.2190    -2.6300     0.0570 c3         1 F3D      -0.038200
      2 N1         -10.4470    -0.1070    -0.0860 n          1 F3D      -0.410800
      3 C2           3.8070    -2.0400     0.0440 ce         1 F3D      -0.042400
      4 N2           7.5990     3.2210    -0.2830 na         1 F3D      -0.063400
      5 C3           3.5670    -0.6940    -0.1060 cf         1 F3D       0.004600
      6 C4           2.2130    -0.0940    -0.2130 ca         1 F3D      -0.090800
      7 C5           1.2270    -0.6760    -1.0380 ca         1 F3D      -0.057000
      8 O1          -8.6190    -1.0830     0.8930 o          1 F3D      -0.599100
      9 C6          -0.0520    -0.1010    -1.1380 ca         1 F3D      -0.176500
     10 C7          -0.3670     1.0620    -0.4210 ca         1 F3D       0.150100
     11 C8          -2.0610     2.7750     0.1330 c3         1 F3D       0.162600
     12 C9          -3.5330     3.0710    -0.2490 c3         1 F3D       0.159800
     13 C10         -5.8390     2.1190    -0.2760 c3         1 F3D       0.155800
     14 C11         -6.6770     0.9200     0.2090 c3         1 F3D      -0.069400
     15 C12         -8.1680     1.0230    -0.2020 c3         1 F3D      -0.154400
     16 C13         -9.0740    -0.1420     0.2530 c          1 F3D       0.601100
     17 C14        -11.0360     1.0090    -0.8630 c3         1 F3D       0.085800
     18 C15        -11.3450    -1.2070     0.3340 c3         1 F3D       0.085800
     19 N           -4.4390     1.9670     0.1500 n7         1 F3D      -0.857400
     20 O           -1.6380     1.5800    -0.5590 os         1 F3D      -0.356100
     21 C16          0.6130     1.6570     0.4000 ca         1 F3D      -0.176500
     22 C17          1.8930     1.0830     0.4990 ca         1 F3D      -0.057000
     23 C            5.6300    -3.1880     1.4350 c3         1 F3D      -0.085100
     24 C25          2.7280    -3.0560     0.2280 ca         1 F3D      -0.053800
     25 C30          2.5780    -4.1270    -0.6770 ca         1 F3D      -0.098000
     26 C29          1.5550    -5.0730    -0.4930 ca         1 F3D      -0.112000
     27 C28          0.6740    -4.9560     0.5950 ca         1 F3D      -0.108000
     28 C27          0.8170    -3.8910     1.5000 ca         1 F3D      -0.112000
     29 C26          1.8410    -2.9450     1.3160 ca         1 F3D      -0.098000
     30 C18          4.6120     0.3500    -0.2240 ca         1 F3D      -0.088800
     31 C24          5.5790     0.5180     0.7980 ca         1 F3D      -0.025000
     32 C23          6.5330     1.5310     0.6370 ca         1 F3D      -0.237900
     33 C22          7.6290     1.9630     1.4670 cc         1 F3D       0.355800
     34 N3           8.2900     2.9960     0.9170 nd         1 F3D      -0.518100
     35 C21          6.5470     2.3450    -0.4480 ca         1 F3D      -0.037200
     36 C20          5.6080     2.2270    -1.4770 ca         1 F3D      -0.136000
     37 C19          4.6290     1.2150    -1.3530 ca         1 F3D      -0.055000
     38 H1           5.2950    -3.4420    -0.6750 hc         1 F3D       0.050200
     39 H2           5.9700    -1.8990    -0.2640 hc         1 F3D       0.050200
     40 H3           7.8740     3.9580    -0.9310 hn         1 F3D       0.375000
     41 H4           1.4540    -1.5680    -1.6160 ha         1 F3D       0.118000
     42 H5          -0.8020    -0.5600    -1.7770 ha         1 F3D       0.121000
     43 H6          -1.4380     3.6300    -0.1570 h1         1 F3D       0.044200
     44 H7          -1.9870     2.6430     1.2200 h1         1 F3D       0.044200
     45 H8          -3.8400     4.0080     0.2360 h1         1 F3D       0.038200
     46 H9          -3.5820     3.2330    -1.3350 h1         1 F3D       0.038200
     47 H10         -5.9000     2.1800    -1.3720 h1         1 F3D       0.023700
     48 H11         -6.2640     3.0440     0.1370 h1         1 F3D       0.023700
     49 H12         -6.2540    -0.0060    -0.1990 hc         1 F3D       0.064700
     50 H13         -6.6080     0.8540     1.3020 hc         1 F3D       0.064700
     51 H14         -8.6160     1.9590     0.1540 hc         1 F3D       0.055200
     52 H15         -8.2760     1.1330    -1.2870 hc         1 F3D       0.055200
     53 H16        -12.1100     0.8480    -1.0250 h1         1 F3D       0.040367
     54 H17        -10.9070     1.9530    -0.3190 h1         1 F3D       0.040367
     55 H18        -10.5460     1.0830    -1.8420 h1         1 F3D       0.040367
     56 H19        -11.0000    -2.1520    -0.1040 h1         1 F3D       0.040367
     57 H20        -11.3360    -1.2940     1.4290 h1         1 F3D       0.040367
     58 H21        -12.3750    -1.0220     0.0050 h1         1 F3D       0.040367
     59 H22         -4.0650     1.1050    -0.2670 hn         1 F3D       0.424000
     60 H24          0.4040     2.5590     0.9670 ha         1 F3D       0.121000
     61 H25          2.6350     1.5500     1.1420 ha         1 F3D       0.118000
     62 H26          5.5710    -2.4120     2.2060 hc         1 F3D       0.034700
     63 H27          4.9740    -4.0150     1.7300 hc         1 F3D       0.034700
     64 H28          6.6600    -3.5640     1.4030 hc         1 F3D       0.034700
     65 H29          3.2460    -4.2210    -1.5290 ha         1 F3D       0.113500
     66 H30          1.4430    -5.8950    -1.1970 ha         1 F3D       0.112500
     67 H31         -0.1180    -5.6880     0.7360 ha         1 F3D       0.112000
     68 H32          0.1360    -3.7980     2.3430 ha         1 F3D       0.112500
     69 H33          1.9460    -2.1220     2.0200 ha         1 F3D       0.113500
     70 H34          5.5760    -0.1090     1.6860 ha         1 F3D       0.123000
     71 H35          7.9800     1.5950     2.4230 h4         1 F3D       0.049800
     72 H36          5.6260     2.8880    -2.3400 ha         1 F3D       0.121000
     73 H37          3.8840     1.0970    -2.1360 ha         1 F3D       0.121000
@<TRIPOS>BOND
     1     1     3 1   
     2     1    23 1   
     3     1    38 1   
     4     1    39 1   
     5     2    16 1   
     6     2    17 1   
     7     2    18 1   
     8     3     5 2   
     9     3    24 1   
    10     4    34 1   
    11     4    35 1   
    12     4    40 1   
    13     5     6 1   
    14     5    30 1   
    15     6     7 ar  
    16     6    22 ar  
    17     7     9 ar  
    18     7    41 1   
    19     8    16 2   
    20     9    10 ar  
    21     9    42 1   
    22    10    20 1   
    23    10    21 ar  
    24    11    12 1   
    25    11    20 1   
    26    11    43 1   
    27    11    44 1   
    28    12    19 1   
    29    12    45 1   
    30    12    46 1   
    31    13    14 1   
    32    13    19 1   
    33    13    47 1   
    34    13    48 1   
    35    14    15 1   
    36    14    49 1   
    37    14    50 1   
    38    15    16 1   
    39    15    51 1   
    40    15    52 1   
    41    17    53 1   
    42    17    54 1   
    43    17    55 1   
    44    18    56 1   
    45    18    57 1   
    46    18    58 1   
    47    19    59 1   
    48    21    22 ar  
    49    21    60 1   
    50    22    61 1   
    51    23    62 1   
    52    23    63 1   
    53    23    64 1   
    54    24    25 ar  
    55    24    29 ar  
    56    25    26 ar  
    57    25    65 1   
    58    26    27 ar  
    59    26    66 1   
    60    27    28 ar  
    61    27    67 1   
    62    28    29 ar  
    63    28    68 1   
    64    29    69 1   
    65    30    31 ar  
    66    30    37 ar  
    67    31    32 ar  
    68    31    70 1   
    69    32    33 1   
    70    32    35 ar  
    71    33    34 2   
    72    33    71 1   
    73    35    36 ar  
    74    36    37 ar  
    75    36    72 1   
    76    37    73 1   
@<TRIPOS>SUBSTRUCTURE
     1 F3D         1 TEMP              0 ****  ****    0 ROOT
