@<TRIPOS>MOLECULE
F3E
   22    23     1     0     0
SMALL
No Charge or Current Charge


@<TRIPOS>ATOM
      1 C10         -3.8890     0.3570    -0.0380 ca         1 F3E      -0.094000
      2 C02          2.5390     0.5630    -0.0800 ca         1 F3E       0.382900
      3 C04          2.4000    -1.6900     0.2200 ca         1 F3E       0.150900
      4 C05          0.9990    -1.5890     0.2110 ca         1 F3E      -0.279000
      5 C06          0.4140    -0.3090     0.0370 cp         1 F3E       0.229500
      6 C07         -1.0740    -0.0810     0.0120 cp         1 F3E      -0.161500
      7 C08         -1.6280     1.2060     0.2610 ca         1 F3E      -0.074500
      8 C09         -3.0170     1.4200     0.2380 ca         1 F3E      -0.122000
      9 C11         -3.3700    -0.9210    -0.2930 ca         1 F3E      -0.122000
     10 C12         -1.9810    -1.1380    -0.2700 ca         1 F3E      -0.074500
     11 N03          3.1810    -0.6040     0.0710 nb         1 F3E      -0.246000
     12 N13          1.2150     0.7680    -0.1030 nb         1 F3E      -0.259000
     13 H1          -4.9640     0.5230    -0.0560 ha         1 F3E       0.113000
     14 H2           2.9020    -2.6470     0.3510 h4         1 F3E       0.019100
     15 H3           0.3950    -2.4800     0.3500 ha         1 F3E       0.134000
     16 H4          -0.9790     2.0500     0.4850 ha         1 F3E       0.123000
     17 H5          -3.4160     2.4120     0.4360 ha         1 F3E       0.114500
     18 H6          -4.0440    -1.7460    -0.5130 ha         1 F3E       0.114500
     19 H7          -1.6140    -2.1370    -0.4880 ha         1 F3E       0.123000
     20 H8           2.8860     2.5200    -0.5650 hn         1 F3E       0.496500
     21 H9           4.3060     1.5360    -0.4400 hn         1 F3E       0.496500
     22 N01          3.3180     1.6620    -0.2290 nv         1 F3E      -1.065900
@<TRIPOS>BOND
     1     1     8 ar  
     2     1     9 ar  
     3     1    13 1   
     4     2    11 ar  
     5     2    12 ar  
     6     2    22 1   
     7     3     4 ar  
     8     3    11 ar  
     9     3    14 1   
    10     4     5 ar  
    11     4    15 1   
    12     5     6 1   
    13     5    12 ar  
    14     6     7 ar  
    15     6    10 ar  
    16     7     8 ar  
    17     7    16 1   
    18     8    17 1   
    19     9    10 ar  
    20     9    18 1   
    21    10    19 1   
    22    20    22 1   
    23    21    22 1   
@<TRIPOS>SUBSTRUCTURE
     1 F3E         1 TEMP              0 ****  ****    0 ROOT
