@<TRIPOS>MOLECULE
F3E
   22    23     1     0     0
SMALL
abcg2


@<TRIPOS>ATOM
      1 C10         -3.8240     0.3530    -0.0260 ca         1 F3E      -0.094000
      2 C02          2.4910     0.5710    -0.1110 ca         1 F3E       0.382900
      3 C04          2.3310    -1.6520     0.2230 ca         1 F3E       0.150900
      4 C05          0.9490    -1.5820     0.2180 ca         1 F3E      -0.279000
      5 C06          0.3960    -0.3190     0.0180 cp         1 F3E       0.229500
      6 C07         -1.0650    -0.0950    -0.0060 cp         1 F3E      -0.161500
      7 C08         -1.5810     1.1780     0.2470 ca         1 F3E      -0.074500
      8 C09         -2.9490     1.3980     0.2420 ca         1 F3E      -0.122000
      9 C11         -3.3210    -0.9140    -0.2900 ca         1 F3E      -0.122000
     10 C12         -1.9520    -1.1370    -0.2780 ca         1 F3E      -0.074500
     11 N03          3.1160    -0.6010     0.0590 nb         1 F3E      -0.246000
     12 N13          1.1680     0.7490    -0.1420 nb         1 F3E      -0.259000
     13 H1          -4.8930     0.5250    -0.0330 ha         1 F3E       0.113000
     14 H2           2.8270    -2.6060     0.3720 h4         1 F3E       0.019100
     15 H3           0.3500    -2.4660     0.3790 ha         1 F3E       0.134000
     16 H4          -0.9030     1.9940     0.4550 ha         1 F3E       0.123000
     17 H5          -3.3340     2.3870     0.4510 ha         1 F3E       0.114500
     18 H6          -3.9950    -1.7320    -0.5100 ha         1 F3E       0.114500
     19 H7          -1.5810    -2.1290    -0.5020 ha         1 F3E       0.123000
     20 H8           2.8410     2.5290    -0.5400 hn         1 F3E       0.496500
     21 H9           4.2480     1.5550    -0.3920 hn         1 F3E       0.496500
     22 N01          3.2620     1.6670    -0.2380 nv         1 F3E      -1.065900
@<TRIPOS>BOND
     1     1     8 ar  
     2     1     9 ar  
     3     1    13 1   
     4     2    11 ar  
     5     2    12 ar  
     6     2    22 1   
     7     3     4 ar  
     8     3    11 ar  
     9     3    14 1   
    10     4     5 ar  
    11     4    15 1   
    12     5     6 1   
    13     5    12 ar  
    14     6     7 ar  
    15     6    10 ar  
    16     7     8 ar  
    17     7    16 1   
    18     8    17 1   
    19     9    10 ar  
    20     9    18 1   
    21    10    19 1   
    22    20    22 1   
    23    21    22 1   
@<TRIPOS>SUBSTRUCTURE
     1 F3E         1 TEMP              0 ****  ****    0 ROOT
