@<TRIPOS>MOLECULE
F3F
   33    35     1     0     0
SMALL
bcc


@<TRIPOS>ATOM
      1 CAA          7.4060     0.0880     0.1880 ca         1 F3F      -0.096000
      2 CAB          8.5880    -0.6270     0.0920 ca         1 F3F      -0.131000
      3 CAC          8.5670    -1.9700    -0.2650 ca         1 F3F      -0.109000
      4 CAD          7.3570    -2.6010    -0.5270 ca         1 F3F      -0.131000
      5 CAE          6.1680    -1.8960    -0.4340 ca         1 F3F      -0.096000
      6 CAF          6.1860    -0.5440    -0.0750 ca         1 F3F       0.004000
      7 CAG          4.9710     0.1840     0.0250 cg         1 F3F      -0.023000
      8 CAH          3.9380     0.8030     0.1150 ch         1 F3F      -0.237000
      9 CAI          2.7510     1.5390     0.2340 cd         1 F3F       0.424700
     10 OAM          1.5890     0.9110    -0.0260 os         1 F3F      -0.295800
     11 CAJ          2.5140     2.8420     0.5860 cc         1 F3F      -0.262300
     12 CAK          1.1170     3.0150     0.5380 cc         1 F3F      -0.159300
     13 CAL          0.6010     1.8100     0.1590 cd         1 F3F       0.135200
     14 CAN         -0.7610     1.3830    -0.0630 c          1 F3F       0.534200
     15 OAY         -1.7260     2.0840     0.0800 o          1 F3F      -0.475100
     16 SAO         -0.8780    -0.3430    -0.5910 ss         1 F3F      -0.235900
     17 CAP         -2.6070    -0.4090    -0.7660 cc         1 F3F       0.460800
     18 NAT         -3.4660    -0.6510     0.2470 na         1 F3F      -0.390700
     19 CAS         -4.6770    -0.6500    -0.3330 cc         1 F3F       0.271800
     20 CAU         -5.9590    -0.8660     0.4000 c3         1 F3F       0.670600
     21 FAW         -6.1590     0.0910     1.3080 f          1 F3F      -0.215967
     22 FAX         -5.9460    -2.0320     1.0490 f          1 F3F      -0.215967
     23 FAV         -6.9810    -0.8640    -0.4420 f          1 F3F      -0.215967
     24 NAR         -4.5710    -0.4320    -1.6120 nd         1 F3F      -0.299000
     25 NAQ         -3.2630    -0.2810    -1.8870 nd         1 F3F      -0.290000
     26 HAA          7.4210     1.1330     0.4650 ha         1 F3F       0.140500
     27 HAB          9.5290    -0.1350     0.2980 ha         1 F3F       0.137500
     28 HAC          9.4930    -2.5250    -0.3410 ha         1 F3F       0.136000
     29 HAD          7.3380    -3.6470    -0.8040 ha         1 F3F       0.137500
     30 HAE          5.2250    -2.3850    -0.6380 ha         1 F3F       0.140500
     31 HAJ          3.2610     3.5730     0.8460 ha         1 F3F       0.175000
     32 HAK          0.5600     3.9130     0.7550 ha         1 F3F       0.179000
     33 HAT         -3.2310    -0.7990     1.2200 hn         1 F3F       0.334700
@<TRIPOS>BOND
     1     1     2 ar  
     2     1     6 ar  
     3     1    26 1   
     4     2     3 ar  
     5     2    27 1   
     6     3     4 ar  
     7     3    28 1   
     8     4     5 ar  
     9     4    29 1   
    10     5     6 ar  
    11     5    30 1   
    12     6     7 1   
    13     7     8 3   
    14     8     9 1   
    15     9    10 1   
    16     9    11 2   
    17    10    13 1   
    18    11    12 1   
    19    11    31 1   
    20    12    13 2   
    21    12    32 1   
    22    13    14 1   
    23    14    15 2   
    24    14    16 1   
    25    16    17 1   
    26    17    18 1   
    27    17    25 2   
    28    18    19 1   
    29    18    33 1   
    30    19    20 1   
    31    19    24 2   
    32    20    21 1   
    33    20    22 1   
    34    20    23 1   
    35    24    25 1   
@<TRIPOS>SUBSTRUCTURE
     1 F3F         1 TEMP              0 ****  ****    0 ROOT
