@<TRIPOS>MOLECULE
F3F
   33    35     1     0     0
SMALL
No Charge or Current Charge


@<TRIPOS>ATOM
      1 CAA          7.5310     0.1200     0.2960 ca         1 F3F      -0.078000
      2 CAB          8.7450    -0.5820     0.1800 ca         1 F3F      -0.113000
      3 CAC          8.7490    -1.9090    -0.2830 ca         1 F3F      -0.091000
      4 CAD          7.5390    -2.5350    -0.6310 ca         1 F3F      -0.113000
      5 CAE          6.3250    -1.8340    -0.5150 ca         1 F3F      -0.078000
      6 CAF          6.3180    -0.5050    -0.0520 ca         1 F3F       0.004000
      7 CAG          5.0800     0.2100     0.0660 cg         1 F3F      -0.023000
      8 CAH          4.0210     0.8070     0.1620 ch         1 F3F      -0.237000
      9 CAI          2.7520     1.4340     0.2560 cd         1 F3F       0.315000
     10 OAM          1.6340     0.7260    -0.1180 os         1 F3F      -0.207000
     11 CAJ          2.4390     2.6950     0.6810 cc         1 F3F      -0.179000
     12 CAK          1.0390     2.8120     0.5770 cc         1 F3F      -0.076000
     13 CAL          0.5930     1.6090     0.0930 cd         1 F3F       0.025500
     14 CAN         -0.8270     1.2560    -0.1840 c          1 F3F       0.534200
     15 OAY         -1.7600     2.0300    -0.0070 o          1 F3F      -0.475100
     16 SAO         -1.0140    -0.4350    -0.8310 ss         1 F3F      -0.235900
     17 CAP         -2.7610    -0.4110    -0.9550 cc         1 F3F       0.460800
     18 NAT         -3.5630    -0.3460     0.1420 na         1 F3F      -0.441000
     19 CAS         -4.8240    -0.6530    -0.3170 cc         1 F3F       0.271800
     20 CAU         -6.0910    -0.6620     0.5230 c3         1 F3F       0.306700
     21 FAW         -5.9610     0.0880     1.6430 f          1 F3F      -0.094667
     22 FAX         -6.4130    -1.9150     0.9200 f          1 F3F      -0.094667
     23 FAV         -7.1530    -0.1720    -0.1580 f          1 F3F      -0.094667
     24 NAR         -4.7400    -0.9830    -1.6030 nd         1 F3F      -0.299000
     25 NAQ         -3.4190    -0.8870    -1.9890 nd         1 F3F      -0.290000
     26 HAA          7.5350     1.1470     0.6550 ha         1 F3F       0.122500
     27 HAB          9.6810    -0.0970     0.4490 ha         1 F3F       0.119500
     28 HAC          9.6880    -2.4520    -0.3720 ha         1 F3F       0.118000
     29 HAD          7.5420    -3.5620    -0.9890 ha         1 F3F       0.119500
     30 HAE          5.3920    -2.3240    -0.7860 ha         1 F3F       0.122500
     31 HAJ          3.1250     3.4590     1.0310 ha         1 F3F       0.157000
     32 HAK          0.4450     3.6860     0.8320 ha         1 F3F       0.161000
     33 HAT         -3.2920    -0.1040     1.0840 hn         1 F3F       0.385000
@<TRIPOS>BOND
     1     1     2 ar  
     2     1     6 ar  
     3     1    26 1   
     4     2     3 ar  
     5     2    27 1   
     6     3     4 ar  
     7     3    28 1   
     8     4     5 ar  
     9     4    29 1   
    10     5     6 ar  
    11     5    30 1   
    12     6     7 1   
    13     7     8 3   
    14     8     9 1   
    15     9    10 1   
    16     9    11 2   
    17    10    13 1   
    18    11    12 1   
    19    11    31 1   
    20    12    13 2   
    21    12    32 1   
    22    13    14 1   
    23    14    15 2   
    24    14    16 1   
    25    16    17 1   
    26    17    18 1   
    27    17    25 2   
    28    18    19 1   
    29    18    33 1   
    30    19    20 1   
    31    19    24 2   
    32    20    21 1   
    33    20    22 1   
    34    20    23 1   
    35    24    25 1   
@<TRIPOS>SUBSTRUCTURE
     1 F3F         1 TEMP              0 ****  ****    0 ROOT
