@<TRIPOS>MOLECULE
F3G
   59    59     1     0     0
SMALL
bcc


@<TRIPOS>ATOM
      1 C21         -3.8420    -0.8880    -0.6920 c          1 F3G       0.755100
      2 O22         -3.7400    -2.0070    -1.1530 o          1 F3G      -0.607000
      3 O23         -4.9700    -0.4010    -0.1630 os         1 F3G      -0.432900
      4 C24         -6.1100    -1.2690    -0.1610 c3         1 F3G       0.208700
      5 C25         -7.2250    -0.5260     0.5090 ca         1 F3G      -0.096300
      6 C26         -7.9530     0.4320    -0.1940 ca         1 F3G      -0.102000
      7 C27         -8.9720     1.1390     0.4270 ca         1 F3G      -0.135500
      8 C28         -9.2760     0.8930     1.7600 ca         1 F3G      -0.120000
      9 C29         -8.5570    -0.0600     2.4680 ca         1 F3G      -0.135500
     10 C30         -7.5350    -0.7640     1.8440 ca         1 F3G      -0.102000
     11 N1          -2.8610     0.0320    -0.6420 ns         1 F3G      -0.547900
     12 C2          -1.5080    -0.2450    -1.0450 c3         1 F3G       0.043700
     13 C6          -0.5570     0.2260     0.0540 c          1 F3G       0.655100
     14 O7          -0.9000     1.0290     0.9100 o          1 F3G      -0.619100
     15 C3          -1.1400     0.4020    -2.4000 c3         1 F3G      -0.067700
     16 C4          -2.0140    -0.1530    -3.5170 c3         1 F3G      -0.088600
     17 C5          -1.2110     1.9240    -2.3580 c3         1 F3G      -0.088600
     18 N8           0.6770    -0.2830    -0.0330 ns         1 F3G      -0.550900
     19 C9           1.7480     0.0570     0.8710 c3         1 F3G       0.031700
     20 C11          3.0670    -0.1740     0.1470 c          1 F3G       0.655100
     21 O12          3.1640    -0.9560    -0.7900 o          1 F3G      -0.652100
     22 C10          1.7160    -0.7870     2.1470 c3         1 F3G      -0.107100
     23 N13          4.1180     0.4850     0.6430 ns         1 F3G      -0.511900
     24 C14          5.4480     0.2320     0.1500 c3         1 F3G       0.034700
     25 C19          5.7860    -1.2430     0.2800 c          1 F3G       0.540100
     26 O20          5.4480    -1.9200     1.2160 o          1 F3G      -0.515100
     27 C15          6.4720     1.0360     0.9450 c3         1 F3G      -0.238400
     28 C16          6.3890     2.5660     0.7250 c          1 F3G       0.927600
     29 O18          5.8380     2.9630    -0.3170 o          1 F3G      -0.826300
     30 O17          6.9220     3.2590     1.6110 o          1 F3G      -0.826300
     31 C31          6.6160    -1.7850    -0.8520 c3         1 F3G       0.055900
     32 H241        -6.3810    -1.5320    -1.1860 h1         1 F3G       0.053700
     33 H242        -5.8810    -2.1910     0.3770 h1         1 F3G       0.053700
     34 H26         -7.7240     0.6220    -1.2360 ha         1 F3G       0.134000
     35 H27         -9.5310     1.8790    -0.1310 ha         1 F3G       0.129500
     36 H28        -10.0740     1.4400     2.2450 ha         1 F3G       0.127000
     37 H29         -8.7910    -0.2580     3.5060 ha         1 F3G       0.129500
     38 H30         -6.9770    -1.5070     2.4010 ha         1 F3G       0.134000
     39 HN1         -3.0340     0.8960    -0.1520 hn         1 F3G       0.347500
     40 H2          -1.4010    -1.3270    -1.1540 h1         1 F3G       0.087700
     41 H3          -0.1050     0.1140    -2.6130 hc         1 F3G       0.063700
     42 H41         -3.0610     0.1230    -3.3790 hc         1 F3G       0.037867
     43 H42         -1.6940     0.2470    -4.4790 hc         1 F3G       0.037867
     44 H43         -1.9580    -1.2410    -3.5710 hc         1 F3G       0.037867
     45 H51         -0.5250     2.3560    -1.6280 hc         1 F3G       0.037867
     46 H52         -0.9480     2.3390    -3.3320 hc         1 F3G       0.037867
     47 H53         -2.2190     2.2710    -2.1210 hc         1 F3G       0.037867
     48 HN8          0.8760    -0.9900    -0.7270 hn         1 F3G       0.339500
     49 H9           1.6580     1.1120     1.1370 h1         1 F3G       0.088700
     50 H101         2.5080    -0.4910     2.8340 hc         1 F3G       0.048700
     51 H102         0.7640    -0.6550     2.6580 hc         1 F3G       0.048700
     52 H103         1.8410    -1.8450     1.9150 hc         1 F3G       0.048700
     53 H13          3.9940     1.1260     1.4110 hn         1 F3G       0.339500
     54 H14          5.5190     0.5280    -0.9010 h1         1 F3G       0.094700
     55 H151         6.3840     0.7980     2.0090 hc         1 F3G       0.039200
     56 H152         7.4780     0.7210     0.6500 hc         1 F3G       0.039200
     57 H311         5.9950    -1.8090    -1.7530 h1         1 F3G       0.066700
     58 H312         7.4700    -1.1330    -1.0530 h1         1 F3G       0.066700
     59 F1           7.0620    -3.0540    -0.5650 f          1 F3G      -0.243300
@<TRIPOS>BOND
     1     1     2 2   
     2     1     3 1   
     3     1    11 1   
     4     3     4 1   
     5     4     5 1   
     6     4    32 1   
     7     4    33 1   
     8     5     6 ar  
     9     5    10 ar  
    10     6     7 ar  
    11     6    34 1   
    12     7     8 ar  
    13     7    35 1   
    14     8     9 ar  
    15     8    36 1   
    16     9    10 ar  
    17     9    37 1   
    18    10    38 1   
    19    11    12 1   
    20    11    39 1   
    21    12    13 1   
    22    12    15 1   
    23    12    40 1   
    24    13    14 2   
    25    13    18 1   
    26    15    16 1   
    27    15    17 1   
    28    15    41 1   
    29    16    42 1   
    30    16    43 1   
    31    16    44 1   
    32    17    45 1   
    33    17    46 1   
    34    17    47 1   
    35    18    19 1   
    36    18    48 1   
    37    19    20 1   
    38    19    22 1   
    39    19    49 1   
    40    20    21 2   
    41    20    23 1   
    42    22    50 1   
    43    22    51 1   
    44    22    52 1   
    45    23    24 1   
    46    23    53 1   
    47    24    25 1   
    48    24    27 1   
    49    24    54 1   
    50    25    26 2   
    51    25    31 1   
    52    27    28 1   
    53    27    55 1   
    54    27    56 1   
    55    28    29 1   
    56    28    30 1   
    57    31    57 1   
    58    31    58 1   
    59    31    59 1   
@<TRIPOS>SUBSTRUCTURE
     1 F3G         1 TEMP              0 ****  ****    0 ROOT
