@<TRIPOS>MOLECULE
F3G
   59    59     1     0     0
SMALL
No Charge or Current Charge


@<TRIPOS>ATOM
      1 C21         -4.0200    -0.9800    -0.6870 c          1 F3G       0.639100
      2 O22         -3.9820    -2.0540    -1.2660 o          1 F3G      -0.558000
      3 O23         -5.1200    -0.4180    -0.1200 os         1 F3G      -0.456100
      4 C24         -6.3590    -1.1380    -0.2230 c3         1 F3G       0.231900
      5 C25         -7.4460    -0.3270     0.4700 ca         1 F3G      -0.096300
      6 C26         -8.1830     0.6350    -0.2500 ca         1 F3G      -0.084000
      7 C27         -9.1870     1.3830     0.3890 ca         1 F3G      -0.117500
      8 C28         -9.4590     1.1760     1.7520 ca         1 F3G      -0.102000
      9 C29         -8.7260     0.2210     2.4750 ca         1 F3G      -0.117500
     10 C30         -7.7220    -0.5280     1.8370 ca         1 F3G      -0.084000
     11 N1          -2.9510    -0.1580    -0.4780 ns         1 F3G      -0.480900
     12 C2          -1.5660    -0.4150    -0.9350 c3         1 F3G       0.043700
     13 C6          -0.5500     0.0410     0.1570 c          1 F3G       0.588100
     14 O7          -0.8690     0.7170     1.1300 o          1 F3G      -0.619100
     15 C3          -1.2750     0.2370    -2.3260 c3         1 F3G      -0.067700
     16 C4          -2.1080    -0.3960    -3.4660 c3         1 F3G      -0.088600
     17 C5          -1.4310     1.7780    -2.3150 c3         1 F3G      -0.088600
     18 N8           0.7530    -0.3660    -0.0440 ns         1 F3G      -0.483900
     19 C9           1.8930    -0.0580     0.8470 c3         1 F3G       0.031700
     20 C11          3.2350    -0.2120     0.0740 c          1 F3G       0.588100
     21 O12          3.3080    -0.6900    -1.0540 o          1 F3G      -0.652100
     22 C10          1.8520    -0.9450     2.1150 c3         1 F3G      -0.107100
     23 N13          4.3570     0.2280     0.7410 ns         1 F3G      -0.444900
     24 C14          5.7240     0.1950     0.1840 c3         1 F3G       0.034700
     25 C19          6.2840    -1.2580     0.1820 c          1 F3G       0.540100
     26 O20          5.9430    -2.0940     1.0190 o          1 F3G      -0.515100
     27 C15          6.6640     1.1900     0.9170 c3         1 F3G      -0.238400
     28 C16          6.1130     2.6190     0.8390 c          1 F3G       0.717000
     29 O18          6.4070     3.2920    -0.1360 o          1 F3G      -0.721000
     30 O17          5.3680     2.9960     1.7300 o          1 F3G      -0.721000
     31 C31          7.2800    -1.5790    -0.9520 c3         1 F3G       0.074600
     32 H241        -6.6330    -1.2940    -1.2750 h1         1 F3G       0.053700
     33 H242        -6.2770    -2.1250     0.2530 h1         1 F3G       0.053700
     34 H26         -7.9760     0.8030    -1.3050 ha         1 F3G       0.116000
     35 H27         -9.7520     2.1240    -0.1720 ha         1 F3G       0.111500
     36 H28        -10.2360     1.7560     2.2460 ha         1 F3G       0.109000
     37 H29         -8.9350     0.0610     3.5310 ha         1 F3G       0.111500
     38 H30         -7.1570    -1.2650     2.4050 ha         1 F3G       0.116000
     39 HN1         -3.1370     0.6750     0.0660 hn         1 F3G       0.347500
     40 H2          -1.4300    -1.5010    -1.0290 h1         1 F3G       0.087700
     41 H3          -0.2260     0.0280    -2.5700 hc         1 F3G       0.063700
     42 H41         -3.1750    -0.1680    -3.3510 hc         1 F3G       0.037867
     43 H42         -1.7840    -0.0100    -4.4400 hc         1 F3G       0.037867
     44 H43         -1.9870    -1.4860    -3.4770 hc         1 F3G       0.037867
     45 H51         -0.7830     2.2360    -1.5590 hc         1 F3G       0.037867
     46 H52         -1.1540     2.1990    -3.2890 hc         1 F3G       0.037867
     47 H53         -2.4670     2.0700    -2.1040 hc         1 F3G       0.037867
     48 HN8          0.9440    -0.9020    -0.8850 hn         1 F3G       0.339500
     49 H9           1.8230     0.9950     1.1510 h1         1 F3G       0.088700
     50 H101         2.6710    -0.6920     2.7990 hc         1 F3G       0.048700
     51 H102         0.9100    -0.8070     2.6590 hc         1 F3G       0.048700
     52 H103         1.9420    -2.0050     1.8490 hc         1 F3G       0.048700
     53 H13          4.2190     0.6280     1.6630 hn         1 F3G       0.339500
     54 H14          5.6630     0.5060    -0.8680 h1         1 F3G       0.094700
     55 H151         6.7130     0.8560     1.9610 hc         1 F3G       0.039200
     56 H152         7.6250     1.1350     0.3920 hc         1 F3G       0.039200
     57 H311         6.7710    -1.4340    -1.9120 h1         1 F3G       0.066700
     58 H312         8.1180    -0.8750    -0.8910 h1         1 F3G       0.066700
     59 F1           7.7690    -2.8490    -0.9010 f          1 F3G      -0.262000
@<TRIPOS>BOND
     1     1     2 2   
     2     1     3 1   
     3     1    11 1   
     4     3     4 1   
     5     4     5 1   
     6     4    32 1   
     7     4    33 1   
     8     5     6 ar  
     9     5    10 ar  
    10     6     7 ar  
    11     6    34 1   
    12     7     8 ar  
    13     7    35 1   
    14     8     9 ar  
    15     8    36 1   
    16     9    10 ar  
    17     9    37 1   
    18    10    38 1   
    19    11    12 1   
    20    11    39 1   
    21    12    13 1   
    22    12    15 1   
    23    12    40 1   
    24    13    14 2   
    25    13    18 1   
    26    15    16 1   
    27    15    17 1   
    28    15    41 1   
    29    16    42 1   
    30    16    43 1   
    31    16    44 1   
    32    17    45 1   
    33    17    46 1   
    34    17    47 1   
    35    18    19 1   
    36    18    48 1   
    37    19    20 1   
    38    19    22 1   
    39    19    49 1   
    40    20    21 2   
    41    20    23 1   
    42    22    50 1   
    43    22    51 1   
    44    22    52 1   
    45    23    24 1   
    46    23    53 1   
    47    24    25 1   
    48    24    27 1   
    49    24    54 1   
    50    25    26 2   
    51    25    31 1   
    52    27    28 1   
    53    27    55 1   
    54    27    56 1   
    55    28    29 1   
    56    28    30 1   
    57    31    57 1   
    58    31    58 1   
    59    31    59 1   
@<TRIPOS>SUBSTRUCTURE
     1 F3G         1 TEMP              0 ****  ****    0 ROOT
