@<TRIPOS>MOLECULE
F3J
   87    93     1     0     0
SMALL
No Charge or Current Charge


@<TRIPOS>ATOM
      1 C1          -3.2580     7.5950    -4.8100 c6         1 F3J      -0.092400
      2 C2          -1.9000     8.1850    -4.3580 c6         1 F3J       0.106000
      3 C3          -3.2490    10.2020    -3.7210 c6         1 F3J       0.106000
      4 C4          -4.0720     9.1490    -2.9460 c6         1 F3J      -0.092400
      5 C5           2.5990    11.4730    -8.5250 c3         1 F3J       0.154900
      6 C7           6.2550     5.7800     0.2170 cy         1 F3J      -0.090900
      7 C11          0.3910    10.0350    -5.1000 ca         1 F3J      -0.135600
      8 C12          1.1110    10.5230    -6.2120 ca         1 F3J      -0.120000
      9 C13          2.4400    10.1060    -6.4570 ca         1 F3J       0.075100
     10 C14          3.0760     9.2080    -5.5610 ca         1 F3J       0.312000
     11 C15          2.3570     8.7290    -4.4490 ca         1 F3J      -0.129000
     12 C16          1.0370     9.1450    -4.2130 ca         1 F3J      -0.087000
     13 C17          5.4460     8.2690    -5.1070 ca         1 F3J       0.396900
     14 C18          7.5750     7.4530    -5.1530 ca         1 F3J       0.138900
     15 C19          7.5300     7.2150    -3.7620 ca         1 F3J      -0.111400
     16 C20          6.3680     7.6660    -3.0930 ca         1 F3J       0.384900
     17 C21          7.0810     8.4840    -1.0660 ca         1 F3J       0.316000
     18 C22          6.4000     9.4480    -0.3040 ca         1 F3J      -0.153000
     19 C25          9.1950     9.4580    -0.3850 ca         1 F3J      -0.044000
     20 C27          9.2750     7.4520    -1.9040 c          1 F3J       0.587600
     21 N1           8.7350     6.8100    -3.0600 n          1 F3J      -0.297000
     22 C28          9.5770     5.7810    -3.7170 c3         1 F3J       0.090300
     23 N4           6.5300     7.9610    -5.8300 nb         1 F3J      -0.235000
     24 C26          8.4870     8.4850    -1.1290 ca         1 F3J      -0.156600
     25 C24          8.5110    10.4230     0.3740 ca         1 F3J      -0.133000
     26 C23          7.1100    10.4230     0.4130 ca         1 F3J      -0.071000
     27 N2           6.3440     7.5260    -1.7240 na         1 F3J      -0.785100
     28 C29          5.6300     6.4580    -1.0480 cy         1 F3J       0.201500
     29 N3           5.3240     8.1670    -3.7770 nb         1 F3J      -0.273000
     30 N5           4.3960     8.8060    -5.8370 nu         1 F3J      -0.919900
     31 C           -4.4440     7.9230    -3.8360 c6         1 F3J       0.184500
     32 C31          5.6170     5.0170    -1.6580 cy         1 F3J      -0.090900
     33 C32          5.4190     4.5210    -0.1880 cy         1 F3J      -0.091400
     34 O2           3.1550    10.5560    -7.5620 os         1 F3J      -0.370100
     35 O3          -1.3500    11.6630    -5.1570 o          1 F3J      -0.612100
     36 N6          -1.9460     9.6680    -4.2010 n          1 F3J      -0.410800
     37 N7          -4.8880     6.7300    -3.0320 n3         1 F3J      -0.723600
     38 C30         -5.9070     7.0780    -1.9790 c6         1 F3J       0.161300
     39 C33         -6.3860     5.8360    -1.1600 c6         1 F3J       0.162300
     40 N8          -6.9400     4.7590    -2.0320 n3         1 F3J      -0.719600
     41 C35         -5.9410     4.3980    -3.0800 c6         1 F3J       0.162300
     42 C36         -5.4660     5.6410    -3.9000 c6         1 F3J       0.161300
     43 C37         -7.4140     3.5880    -1.2640 c3         1 F3J       0.152100
     44 H1          -3.1210     6.5190    -4.9560 hc         1 F3J       0.055700
     45 H2          -3.4970     8.0000    -5.8030 hc         1 F3J       0.055700
     46 H3          -1.6040     7.7280    -3.4020 h1         1 F3J       0.054700
     47 H4          -1.1440     7.9060    -5.1050 h1         1 F3J       0.054700
     48 H5          -3.0620    11.0640    -3.0650 h1         1 F3J       0.054700
     49 H6          -3.8330    10.5630    -4.5810 h1         1 F3J       0.054700
     50 H7          -4.9840     9.6270    -2.5640 hc         1 F3J       0.055700
     51 H8          -3.4960     8.8220    -2.0700 hc         1 F3J       0.055700
     52 H9           3.3350    11.6910    -9.3090 h1         1 F3J       0.045700
     53 H10          1.7100    11.0450    -9.0040 h1         1 F3J       0.045700
     54 H11          2.3220    12.4210    -8.0470 h1         1 F3J       0.045700
     55 H13          6.0010     6.2390     1.1770 hc         1 F3J       0.061700
     56 H14          0.6150    11.2170    -6.8850 ha         1 F3J       0.134000
     57 H15          2.8080     8.0240    -3.7610 ha         1 F3J       0.151000
     58 H16          0.5260     8.7840    -3.3240 ha         1 F3J       0.121000
     59 H17          8.4650     7.2350    -5.7410 h4         1 F3J       0.032100
     60 H18          5.3140     9.4360    -0.2680 ha         1 F3J       0.124000
     61 H19         10.2830     9.4760    -0.4000 ha         1 F3J       0.135000
     62 H20          9.9600     5.0740    -2.9690 h1         1 F3J       0.049367
     63 H21          8.9870     5.2160    -4.4500 h1         1 F3J       0.049367
     64 H22         10.4210     6.2620    -4.2260 h1         1 F3J       0.049367
     65 H23          9.0700    11.1710     0.9330 ha         1 F3J       0.122000
     66 H24          6.5770    11.1670     1.0010 ha         1 F3J       0.117000
     67 H25          4.6170     6.8390    -0.8590 h1         1 F3J       0.057700
     68 H26          4.6810     9.0830    -6.7780 hn         1 F3J       0.532000
     69 H27         -5.2870     8.2390    -4.4690 h1         1 F3J       0.027700
     70 H28          4.7990     4.8030    -2.3540 hc         1 F3J       0.061700
     71 H29          6.5620     4.7100    -2.1220 hc         1 F3J       0.061700
     72 H30          4.3800     4.5300     0.1620 hc         1 F3J       0.052700
     73 H31          5.8640     3.5500     0.0560 hc         1 F3J       0.052700
     74 H33         -5.4970     7.7970    -1.2560 h1         1 F3J       0.039200
     75 H34         -6.7850     7.5510    -2.4430 h1         1 F3J       0.039200
     76 H35         -7.1460     6.1660    -0.4360 h1         1 F3J       0.038450
     77 H36         -5.5350     5.4520    -0.5790 h1         1 F3J       0.038450
     78 H38         -6.3710     3.6640    -3.7760 h1         1 F3J       0.038450
     79 H39         -5.0610     3.9270    -2.6190 h1         1 F3J       0.038450
     80 H40         -4.7430     5.2790    -4.6400 h1         1 F3J       0.039200
     81 H41         -6.3260     6.0300    -4.4650 h1         1 F3J       0.039200
     82 H42         -8.1810     3.8860    -0.5370 h1         1 F3J       0.031700
     83 H43         -7.8570     2.8390    -1.9350 h1         1 F3J       0.031700
     84 H44         -6.5870     3.1140    -0.7180 h1         1 F3J       0.031700
     85 C6          -1.0270    10.5190    -4.8590 c          1 F3J       0.609700
     86 O1          10.4000     7.1560    -1.5140 o          1 F3J      -0.558000
     87 H12          7.3420     5.6430     0.1690 hc         1 F3J       0.061700
@<TRIPOS>BOND
     1     1     2 1   
     2     1    31 1   
     3     1    44 1   
     4     1    45 1   
     5     2    36 1   
     6     2    46 1   
     7     2    47 1   
     8     3     4 1   
     9     3    36 1   
    10     3    48 1   
    11     3    49 1   
    12     4    31 1   
    13     4    50 1   
    14     4    51 1   
    15     5    34 1   
    16     5    52 1   
    17     5    53 1   
    18     5    54 1   
    19     6    28 1   
    20     6    33 1   
    21     6    55 1   
    22     6    87 1   
    23     7     8 ar  
    24     7    12 ar  
    25     7    85 1   
    26     8     9 ar  
    27     8    56 1   
    28     9    10 ar  
    29     9    34 1   
    30    10    11 ar  
    31    10    30 1   
    32    11    12 ar  
    33    11    57 1   
    34    12    58 1   
    35    13    23 ar  
    36    13    29 ar  
    37    13    30 1   
    38    14    15 ar  
    39    14    23 ar  
    40    14    59 1   
    41    15    16 ar  
    42    15    21 1   
    43    16    27 1   
    44    16    29 ar  
    45    17    18 ar  
    46    17    24 ar  
    47    17    27 1   
    48    18    26 ar  
    49    18    60 1   
    50    19    24 ar  
    51    19    25 ar  
    52    19    61 1   
    53    20    21 1   
    54    20    24 1   
    55    20    86 2   
    56    21    22 1   
    57    22    62 1   
    58    22    63 1   
    59    22    64 1   
    60    25    26 ar  
    61    25    65 1   
    62    26    66 1   
    63    27    28 1   
    64    28    32 1   
    65    28    67 1   
    66    30    68 1   
    67    31    37 1   
    68    31    69 1   
    69    32    33 1   
    70    32    70 1   
    71    32    71 1   
    72    33    72 1   
    73    33    73 1   
    74    35    85 2   
    75    36    85 1   
    76    37    38 1   
    77    37    42 1   
    78    38    39 1   
    79    38    74 1   
    80    38    75 1   
    81    39    40 1   
    82    39    76 1   
    83    39    77 1   
    84    40    41 1   
    85    40    43 1   
    86    41    42 1   
    87    41    78 1   
    88    41    79 1   
    89    42    80 1   
    90    42    81 1   
    91    43    82 1   
    92    43    83 1   
    93    43    84 1   
@<TRIPOS>SUBSTRUCTURE
     1 F3J         1 TEMP              0 ****  ****    0 ROOT
