@<TRIPOS>MOLECULE
F3J
   87    93     1     0     0
SMALL
abcg2


@<TRIPOS>ATOM
      1 C1          -2.9520     7.4880    -4.7370 c6         1 F3J      -0.092400
      2 C2          -1.6700     8.1120    -4.1990 c6         1 F3J       0.106000
      3 C3          -3.1300    10.0830    -3.7770 c6         1 F3J       0.106000
      4 C4          -3.8930     9.0300    -2.9890 c6         1 F3J      -0.092400
      5 C5           2.3250    10.9830    -8.6060 c3         1 F3J       0.154900
      6 C7           4.8210     6.5010     0.0470 cy         1 F3J      -0.090900
      7 C11          0.4770     9.9790    -4.9390 ca         1 F3J      -0.135600
      8 C12          1.0720    10.3480    -6.1510 ca         1 F3J      -0.120000
      9 C13          2.3840    10.0020    -6.4190 ca         1 F3J       0.075100
     10 C14          3.1530     9.2980    -5.4590 ca         1 F3J       0.312000
     11 C15          2.5530     8.9530    -4.2490 ca         1 F3J      -0.129000
     12 C16          1.2240     9.2820    -3.9990 ca         1 F3J      -0.087000
     13 C17          5.5150     8.5090    -5.1130 ca         1 F3J       0.396900
     14 C18          7.6910     7.8680    -5.1530 ca         1 F3J       0.138900
     15 C19          7.6360     7.4940    -3.8160 ca         1 F3J      -0.111400
     16 C20          6.4190     7.7360    -3.1660 ca         1 F3J       0.384900
     17 C21          7.1820     8.2010    -0.9680 ca         1 F3J       0.316000
     18 C22          6.6790     9.0650     0.0100 ca         1 F3J      -0.153000
     19 C25          9.4170     8.8290    -0.3000 ca         1 F3J      -0.044000
     20 C27          9.2310     7.0610    -1.9950 c          1 F3J       0.587600
     21 N1           8.6960     6.7760    -3.2140 n          1 F3J      -0.297000
     22 C28          9.3580     5.7400    -4.0150 c3         1 F3J       0.090300
     23 N4           6.6560     8.3800    -5.8120 nb         1 F3J      -0.235000
     24 C26          8.5710     8.0700    -1.1140 ca         1 F3J      -0.156600
     25 C24          8.9140     9.7010     0.6500 ca         1 F3J      -0.133000
     26 C23          7.5360     9.8040     0.8120 ca         1 F3J      -0.071000
     27 N2           6.2840     7.4810    -1.8020 na         1 F3J      -0.785100
     28 C29          4.9290     7.2320    -1.3100 cy         1 F3J       0.201500
     29 N3           5.3690     8.2220    -3.8190 nb         1 F3J      -0.273000
     30 N5           4.4600     9.0010    -5.8310 nu         1 F3J      -0.919900
     31 C           -4.1830     7.7930    -3.8480 c6         1 F3J       0.184500
     32 C31          4.1760     6.0550    -1.9680 cy         1 F3J      -0.090900
     33 C32          3.6840     5.6430    -0.5600 cy         1 F3J      -0.091400
     34 O2           3.0370    10.2940    -7.5780 os         1 F3J      -0.370100
     35 O3          -1.2140    11.6360    -4.8630 o          1 F3J      -0.612100
     36 N6          -1.8090     9.5730    -4.1610 n          1 F3J      -0.410800
     37 N7          -4.5460     6.6200    -3.0340 n3         1 F3J      -0.723600
     38 C30         -5.4870     6.9180    -1.9530 c6         1 F3J       0.161300
     39 C33         -5.7760     5.6730    -1.1310 c6         1 F3J       0.162300
     40 N8          -6.3250     4.6080    -1.9600 n3         1 F3J      -0.719600
     41 C35         -5.4100     4.3130    -3.0560 c6         1 F3J       0.162300
     42 C36         -5.1200     5.5620    -3.8690 c6         1 F3J       0.161300
     43 C37         -6.6270     3.4210    -1.1790 c3         1 F3J       0.152100
     44 H1          -2.7960     6.4130    -4.8170 hc         1 F3J       0.055700
     45 H2          -3.1230     7.8620    -5.7480 hc         1 F3J       0.055700
     46 H3          -1.4500     7.7250    -3.2000 h1         1 F3J       0.054700
     47 H4          -0.8330     7.8570    -4.8410 h1         1 F3J       0.054700
     48 H5          -2.9910    10.9840    -3.1800 h1         1 F3J       0.054700
     49 H6          -3.6920    10.3750    -4.6710 h1         1 F3J       0.054700
     50 H7          -4.8190     9.4770    -2.6290 hc         1 F3J       0.055700
     51 H8          -3.3080     8.7470    -2.1100 hc         1 F3J       0.055700
     52 H9           3.0260    11.0920    -9.4290 h1         1 F3J       0.045700
     53 H10          1.4580    10.4040    -8.9320 h1         1 F3J       0.045700
     54 H11          2.0010    11.9670    -8.2620 h1         1 F3J       0.045700
     55 H13          4.5960     7.1040     0.9250 hc         1 F3J       0.061700
     56 H14          0.4940    10.9060    -6.8710 ha         1 F3J       0.134000
     57 H15          3.1300     8.4280    -3.5090 ha         1 F3J       0.151000
     58 H16          0.7830     9.0010    -3.0530 ha         1 F3J       0.121000
     59 H17          8.6030     7.7230    -5.7200 h4         1 F3J       0.032100
     60 H18          5.6120     9.1710     0.1340 ha         1 F3J       0.124000
     61 H19         10.4850     8.7060    -0.4180 ha         1 F3J       0.135000
     62 H20          9.6650     4.9290    -3.3600 h1         1 F3J       0.049367
     63 H21          8.6510     5.3690    -4.7520 h1         1 F3J       0.049367
     64 H22         10.2420     6.1300    -4.5230 h1         1 F3J       0.049367
     65 H23          9.5860    10.2840     1.2660 ha         1 F3J       0.122000
     66 H24          7.1200    10.4710     1.5570 ha         1 F3J       0.117000
     67 H25          4.3180     8.1380    -1.3260 h1         1 F3J       0.057700
     68 H26          4.6970     9.2500    -6.7800 hn         1 F3J       0.532000
     69 H27         -5.0280     8.0470    -4.5090 h1         1 F3J       0.027700
     70 H28          3.4320     6.3000    -2.7220 hc         1 F3J       0.061700
     71 H29          4.8800     5.3300    -2.3780 hc         1 F3J       0.061700
     72 H30          2.7000     6.0560    -0.3360 hc         1 F3J       0.052700
     73 H31          3.6850     4.5800    -0.3230 hc         1 F3J       0.052700
     74 H33         -5.0620     7.6700    -1.2920 h1         1 F3J       0.039200
     75 H34         -6.4360     7.3190    -2.3510 h1         1 F3J       0.039200
     76 H35         -6.4960     5.9160    -0.3480 h1         1 F3J       0.038450
     77 H36         -4.8430     5.3470    -0.6380 h1         1 F3J       0.038450
     78 H38         -5.8650     3.5580    -3.7020 h1         1 F3J       0.038450
     79 H39         -4.4590     3.8970    -2.6770 h1         1 F3J       0.038450
     80 H40         -4.4280     5.3060    -4.6690 h1         1 F3J       0.039200
     81 H41         -6.0550     5.9120    -4.3390 h1         1 F3J       0.039200
     82 H42         -7.3380     3.6700    -0.3900 h1         1 F3J       0.031700
     83 H43         -7.0740     2.6590    -1.8210 h1         1 F3J       0.031700
     84 H44         -5.7290     2.9870    -0.7070 h1         1 F3J       0.031700
     85 C6          -0.9140    10.4500    -4.6610 c          1 F3J       0.609700
     86 O1          10.2550     6.4930    -1.6110 o          1 F3J      -0.558000
     87 H12          5.7170     5.9080     0.2360 hc         1 F3J       0.061700
@<TRIPOS>BOND
     1     1     2 1   
     2     1    31 1   
     3     1    44 1   
     4     1    45 1   
     5     2    36 1   
     6     2    46 1   
     7     2    47 1   
     8     3     4 1   
     9     3    36 1   
    10     3    48 1   
    11     3    49 1   
    12     4    31 1   
    13     4    50 1   
    14     4    51 1   
    15     5    34 1   
    16     5    52 1   
    17     5    53 1   
    18     5    54 1   
    19     6    28 1   
    20     6    33 1   
    21     6    55 1   
    22     6    87 1   
    23     7     8 ar  
    24     7    12 ar  
    25     7    85 1   
    26     8     9 ar  
    27     8    56 1   
    28     9    10 ar  
    29     9    34 1   
    30    10    11 ar  
    31    10    30 1   
    32    11    12 ar  
    33    11    57 1   
    34    12    58 1   
    35    13    23 ar  
    36    13    29 ar  
    37    13    30 1   
    38    14    15 ar  
    39    14    23 ar  
    40    14    59 1   
    41    15    16 ar  
    42    15    21 1   
    43    16    27 1   
    44    16    29 ar  
    45    17    18 ar  
    46    17    24 ar  
    47    17    27 1   
    48    18    26 ar  
    49    18    60 1   
    50    19    24 ar  
    51    19    25 ar  
    52    19    61 1   
    53    20    21 1   
    54    20    24 1   
    55    20    86 2   
    56    21    22 1   
    57    22    62 1   
    58    22    63 1   
    59    22    64 1   
    60    25    26 ar  
    61    25    65 1   
    62    26    66 1   
    63    27    28 1   
    64    28    32 1   
    65    28    67 1   
    66    30    68 1   
    67    31    37 1   
    68    31    69 1   
    69    32    33 1   
    70    32    70 1   
    71    32    71 1   
    72    33    72 1   
    73    33    73 1   
    74    35    85 2   
    75    36    85 1   
    76    37    38 1   
    77    37    42 1   
    78    38    39 1   
    79    38    74 1   
    80    38    75 1   
    81    39    40 1   
    82    39    76 1   
    83    39    77 1   
    84    40    41 1   
    85    40    43 1   
    86    41    42 1   
    87    41    78 1   
    88    41    79 1   
    89    42    80 1   
    90    42    81 1   
    91    43    82 1   
    92    43    83 1   
    93    43    84 1   
@<TRIPOS>SUBSTRUCTURE
     1 F3J         1 TEMP              0 ****  ****    0 ROOT
