@<TRIPOS>MOLECULE
F3L
   44    46     1     0     0
SMALL
No Charge or Current Charge


@<TRIPOS>ATOM
      1 C10        136.6320   166.6970   143.0450 ca         1 F3L       0.131900
      2 C13        139.0490   166.5150   144.3990 ca         1 F3L       0.093000
      3 C15        138.6640   165.4520   143.5670 ca         1 F3L      -0.088000
      4 C20        137.0600   168.7660   139.1770 c5         1 F3L       0.163000
      5 C22        138.1870   169.8430   139.0940 c3         1 F3L       0.133800
      6 C24        140.3900   167.0630   138.7480 ca         1 F3L      -0.227000
      7 C26        142.4140   168.1420   139.5760 ca         1 F3L      -0.102000
      8 C01        141.7680   168.3850   140.8020 ca         1 F3L       0.254000
      9 C03        140.4410   167.9780   140.9960 ca         1 F3L      -0.209000
     10 C04        139.7380   167.3400   139.9680 ca         1 F3L       0.199100
     11 C06        137.5060   167.2610   139.1510 c5         1 F3L       0.159300
     12 C07        136.1610   166.5790   139.5370 c5         1 F3L       0.214800
     13 C12        138.1940   167.6280   144.5220 ca         1 F3L       0.331900
     14 C16        137.4370   165.5450   142.8840 ca         1 F3L      -0.061000
     15 C19        136.2820   168.7710   140.5370 c5         1 F3L       0.196800
     16 C25        141.7210   167.4710   138.5500 ca         1 F3L      -0.004000
     17 F02        142.4150   169.0130   141.8110 f          1 F3L      -0.154000
     18 N08        135.5540   167.4640   140.5820 n3         1 F3L      -0.749500
     19 N11        137.0130   167.7290   143.8630 nb         1 F3L      -0.590000
     20 N23        137.6380   171.1710   138.6730 n8         1 F3L      -1.015200
     21 N28        144.8770   168.8860   139.1920 n1         1 F3L      -0.437000
     22 O05        138.4440   166.9450   140.2370 os         1 F3L      -0.353100
     23 O17        134.1610   167.8370   142.6610 o          1 F3L      -0.520500
     24 O18        134.5540   165.4780   141.7810 o          1 F3L      -0.520500
     25 S09        135.0580   166.8240   142.0840 sy         1 F3L       1.109200
     26 Cl14       140.5820   166.4540   145.2650 cl         1 F3L      -0.164000
     27 H1         139.3030   164.5800   143.4490 ha         1 F3L       0.141000
     28 H2         138.7040   169.9460   140.0580 h1         1 F3L       0.046700
     29 H3         138.9210   169.5250   138.3400 h1         1 F3L       0.046700
     30 H4         139.8950   166.5120   137.9540 ha         1 F3L       0.132000
     31 H5         139.9540   168.1690   141.9470 ha         1 F3L       0.149000
     32 H6         137.8620   166.9150   138.1750 h1         1 F3L       0.086700
     33 H7         135.5010   166.5140   138.6610 h1         1 F3L       0.081200
     34 H8         136.3300   165.5510   139.8840 h1         1 F3L       0.081200
     35 H9         138.4670   168.4670   145.1610 h4         1 F3L       0.041100
     36 H10        137.1230   164.7390   142.2240 ha         1 F3L       0.153000
     37 H11        136.9970   168.8590   141.3670 h1         1 F3L       0.083700
     38 H12        135.5960   169.6250   140.6160 h1         1 F3L       0.083700
     39 H13        142.2160   167.2560   137.6030 ha         1 F3L       0.131000
     40 H14        137.1700   171.6190   139.4740 hn         1 F3L       0.405500
     41 H15        138.4210   171.8130   138.4860 hn         1 F3L       0.405500
     42 H17        136.4990   170.0570   137.9260 ho         1 F3L       0.467000
     43 O21        136.2140   169.1130   138.0720 oh         1 F3L      -0.659000
     44 C27        143.7720   168.5550   139.3710 cg         1 F3L       0.330000
@<TRIPOS>BOND
     1     1    14 ar  
     2     1    19 ar  
     3     1    25 1   
     4     2     3 ar  
     5     2    13 ar  
     6     2    26 1   
     7     3    14 ar  
     8     3    27 1   
     9     4     5 1   
    10     4    11 1   
    11     4    15 1   
    12     4    43 1   
    13     5    20 1   
    14     5    28 1   
    15     5    29 1   
    16     6    10 ar  
    17     6    16 ar  
    18     6    30 1   
    19     7     8 ar  
    20     7    16 ar  
    21     7    44 1   
    22     8     9 ar  
    23     8    17 1   
    24     9    10 ar  
    25     9    31 1   
    26    10    22 1   
    27    11    12 1   
    28    11    22 1   
    29    11    32 1   
    30    12    18 1   
    31    12    33 1   
    32    12    34 1   
    33    13    19 ar  
    34    13    35 1   
    35    14    36 1   
    36    15    18 1   
    37    15    37 1   
    38    15    38 1   
    39    16    39 1   
    40    18    25 1   
    41    20    40 1   
    42    20    41 1   
    43    21    44 3   
    44    23    25 2   
    45    24    25 2   
    46    42    43 1   
@<TRIPOS>SUBSTRUCTURE
     1 F3L         1 TEMP              0 ****  ****    0 ROOT
