@<TRIPOS>MOLECULE
F3L
   44    46     1     0     0
SMALL
abcg2


@<TRIPOS>ATOM
      1 C10        136.7000   166.7010   142.9330 ca         1 F3L       0.131900
      2 C13        138.9390   166.8090   144.4020 ca         1 F3L       0.093000
      3 C15        138.5470   165.5800   143.9030 ca         1 F3L      -0.088000
      4 C20        136.9170   168.8860   139.1150 c5         1 F3L       0.163000
      5 C22        137.8060   170.1260   139.1270 c3         1 F3L       0.133800
      6 C24        140.5200   167.8880   138.7100 ca         1 F3L      -0.227000
      7 C26        142.7200   167.6480   139.6870 ca         1 F3L      -0.102000
      8 C01        142.1120   167.3700   140.9090 ca         1 F3L       0.254000
      9 C03        140.7490   167.3400   141.0570 ca         1 F3L      -0.209000
     10 C04        139.9390   167.5960   139.9470 ca         1 F3L       0.199100
     11 C06        137.6570   167.5380   139.1480 c5         1 F3L       0.159300
     12 C07        136.5690   166.5660   139.5660 c5         1 F3L       0.214800
     13 C12        138.1690   167.9390   144.1390 ca         1 F3L       0.331900
     14 C16        137.3890   165.5200   143.1410 ca         1 F3L      -0.061000
     15 C19        136.0300   168.7980   140.3630 c5         1 F3L       0.196800
     16 C25        141.8960   167.9080   138.5920 ca         1 F3L      -0.004000
     17 F02        142.8870   167.1190   141.9610 f          1 F3L      -0.154000
     18 N08        135.7290   167.3620   140.4680 n3         1 F3L      -0.749500
     19 N11        137.0660   167.8750   143.4170 nb         1 F3L      -0.590000
     20 N23        136.9760   171.3210   139.1210 n8         1 F3L      -1.015200
     21 N28        145.2830   167.6800   139.4800 n1         1 F3L      -0.437000
     22 O05        138.6270   167.5410   140.1860 os         1 F3L      -0.353100
     23 O17        134.3080   167.6920   142.4700 o          1 F3L      -0.520500
     24 O18        134.8490   165.3610   141.6640 o          1 F3L      -0.520500
     25 S09        135.2390   166.7410   141.8950 sy         1 F3L       1.109200
     26 CL14       140.3790   166.9650   145.3270 cl         1 F3L      -0.164000
     27 H1         139.1260   164.6870   144.0960 ha         1 F3L       0.141000
     28 H2         138.4090   170.1340   140.0350 h1         1 F3L       0.046700
     29 H3         138.5010   170.0750   138.2780 h1         1 F3L       0.046700
     30 H4         139.9260   168.1090   137.8360 ha         1 F3L       0.132000
     31 H5         140.3090   167.1150   142.0180 ha         1 F3L       0.149000
     32 H6         138.0880   167.2670   138.1820 h1         1 F3L       0.086700
     33 H7         135.9920   166.2370   138.7020 h1         1 F3L       0.081200
     34 H8         136.9870   165.6790   140.0420 h1         1 F3L       0.081200
     35 H9         138.4600   168.9090   144.5240 h4         1 F3L       0.041100
     36 H10        137.0490   164.5800   142.7310 ha         1 F3L       0.153000
     37 H11        136.5690   169.1650   141.2380 h1         1 F3L       0.083700
     38 H12        135.1170   169.3830   140.2600 h1         1 F3L       0.083700
     39 H13        142.3430   168.1350   137.6340 ha         1 F3L       0.131000
     40 H14        137.4860   172.0970   139.5200 hn         1 F3L       0.405500
     41 H15        136.7540   171.5940   138.1730 hn         1 F3L       0.405500
     42 H17        135.4880   169.5270   137.9600 ho         1 F3L       0.467000
     43 O21        136.1450   168.8220   137.9370 oh         1 F3L      -0.659000
     44 C27        144.1350   167.6650   139.5770 cg         1 F3L       0.330000
@<TRIPOS>BOND
     1     1    14 ar  
     2     1    19 ar  
     3     1    25 1   
     4     2     3 ar  
     5     2    13 ar  
     6     2    26 1   
     7     3    14 ar  
     8     3    27 1   
     9     4     5 1   
    10     4    11 1   
    11     4    15 1   
    12     4    43 1   
    13     5    20 1   
    14     5    28 1   
    15     5    29 1   
    16     6    10 ar  
    17     6    16 ar  
    18     6    30 1   
    19     7     8 ar  
    20     7    16 ar  
    21     7    44 1   
    22     8     9 ar  
    23     8    17 1   
    24     9    10 ar  
    25     9    31 1   
    26    10    22 1   
    27    11    12 1   
    28    11    22 1   
    29    11    32 1   
    30    12    18 1   
    31    12    33 1   
    32    12    34 1   
    33    13    19 ar  
    34    13    35 1   
    35    14    36 1   
    36    15    18 1   
    37    15    37 1   
    38    15    38 1   
    39    16    39 1   
    40    18    25 1   
    41    20    40 1   
    42    20    41 1   
    43    21    44 3   
    44    23    25 2   
    45    24    25 2   
    46    42    43 1   
@<TRIPOS>SUBSTRUCTURE
     1 F3L         1 TEMP              0 ****  ****    0 ROOT
