@<TRIPOS>MOLECULE
F3M
   23    22     1     0     0
SMALL
abcg2


@<TRIPOS>ATOM
      1 N           -1.3250     1.9020    -0.4070 n8         1 F3M      -1.010200
      2 C1           2.5730    -0.1680     0.3240 c          1 F3M       0.595100
      3 F1          -2.7360    -0.3240    -1.2110 f          1 F3M      -0.110333
      4 O1           3.6190     0.5730    -0.0080 os         1 F3M      -0.448100
      5 C2           1.3110     0.6530     0.3920 c3         1 F3M      -0.183400
      6 F2          -3.5360     0.4750     0.6130 f          1 F3M      -0.110333
      7 O2           2.6420    -1.3460     0.5710 o          1 F3M      -0.466000
      8 C3           0.0740    -0.1680     0.0520 c3         1 F3M       0.145300
      9 F3          -2.4160    -1.3590     0.6500 f          1 F3M      -0.110333
     10 O3           0.1350    -0.6630    -1.2640 oh         1 F3M      -0.627000
     11 C4          -1.1960     0.6600     0.3240 c3         1 F3M       0.069500
     12 C5          -2.4690    -0.1420     0.0890 c3         1 F3M       0.317000
     13 CA           4.8970    -0.0650    -0.0450 c3         1 F3M       0.152900
     14 HN          -0.7330     2.6170    -0.0100 hn         1 F3M       0.417500
     15 HNA         -1.0760     1.8040    -1.3820 hn         1 F3M       0.417500
     16 H2           1.2330     1.0420     1.4130 hc         1 F3M       0.075200
     17 H2A          1.3960     1.5250    -0.2600 hc         1 F3M       0.075200
     18 H3           0.0590    -1.0450     0.7030 h1         1 F3M       0.116700
     19 HO3          0.3220     0.0600    -1.8730 ho         1 F3M       0.439000
     20 H4          -1.1900     0.9000     1.3910 h1         1 F3M       0.090700
     21 HA           5.1710    -0.4630     0.9320 h1         1 F3M       0.051700
     22 HAA          4.9190    -0.8690    -0.7800 h1         1 F3M       0.051700
     23 HAB          5.6060     0.7060    -0.3320 h1         1 F3M       0.051700
@<TRIPOS>BOND
     1     1    11 1   
     2     1    14 1   
     3     1    15 1   
     4     2     4 1   
     5     2     5 1   
     6     2     7 2   
     7     3    12 1   
     8     4    13 1   
     9     5     8 1   
    10     5    16 1   
    11     5    17 1   
    12     6    12 1   
    13     8    10 1   
    14     8    11 1   
    15     8    18 1   
    16     9    12 1   
    17    10    19 1   
    18    11    12 1   
    19    11    20 1   
    20    13    21 1   
    21    13    22 1   
    22    13    23 1   
@<TRIPOS>SUBSTRUCTURE
     1 F3M         1 TEMP              0 ****  ****    0 ROOT
