@<TRIPOS>MOLECULE
F3M
   23    22     1     0     0
SMALL
No Charge or Current Charge


@<TRIPOS>ATOM
      1 N           -1.3510     1.9830    -0.3730 n8         1 F3M      -1.010200
      2 C1           2.5910    -0.0840     0.6990 c          1 F3M       0.595100
      3 F1          -2.5360    -0.5580    -1.4180 f          1 F3M      -0.110333
      4 O1           3.4870     0.4250    -0.2070 os         1 F3M      -0.448100
      5 C2           1.2950     0.7230     0.7330 c3         1 F3M      -0.183400
      6 F2          -3.6480     0.2440     0.2840 f          1 F3M      -0.110333
      7 O2           2.8230    -1.0190     1.4530 o          1 F3M      -0.466000
      8 C3           0.1360    -0.0520     0.0620 c3         1 F3M       0.145300
      9 F3          -2.3740    -1.5060     0.5480 f          1 F3M      -0.110333
     10 O3           0.4230    -0.1870    -1.3390 oh         1 F3M      -0.627000
     11 C4          -1.2650     0.6260     0.2800 c3         1 F3M       0.069500
     12 C5          -2.4710    -0.3150    -0.0870 c3         1 F3M       0.317000
     13 CA           4.7680    -0.2220    -0.3270 c3         1 F3M       0.152900
     14 HN          -0.5070     2.5310    -0.1670 hn         1 F3M       0.417500
     15 HNA         -1.3390     1.8750    -1.3950 hn         1 F3M       0.417500
     16 H2           1.0340     0.9020     1.7830 hc         1 F3M       0.075200
     17 H2A          1.4430     1.6770     0.2150 hc         1 F3M       0.075200
     18 H3           0.0970    -1.0480     0.5320 h1         1 F3M       0.116700
     19 HO3          0.6830     0.6970    -1.6730 ho         1 F3M       0.439000
     20 H4          -1.3520     0.7940     1.3640 h1         1 F3M       0.090700
     21 HA           5.3140    -0.1910     0.6260 h1         1 F3M       0.051700
     22 HAA          4.6510    -1.2710    -0.6260 h1         1 F3M       0.051700
     23 HAB          5.3800     0.2820    -1.0850 h1         1 F3M       0.051700
@<TRIPOS>BOND
     1     1    11 1   
     2     1    14 1   
     3     1    15 1   
     4     2     4 1   
     5     2     5 1   
     6     2     7 2   
     7     3    12 1   
     8     4    13 1   
     9     5     8 1   
    10     5    16 1   
    11     5    17 1   
    12     6    12 1   
    13     8    10 1   
    14     8    11 1   
    15     8    18 1   
    16     9    12 1   
    17    10    19 1   
    18    11    12 1   
    19    11    20 1   
    20    13    21 1   
    21    13    22 1   
    22    13    23 1   
@<TRIPOS>SUBSTRUCTURE
     1 F3M         1 TEMP              0 ****  ****    0 ROOT
