@<TRIPOS>MOLECULE
F3Q
   95   103     1     0     0
SMALL
No Charge or Current Charge


@<TRIPOS>ATOM
      1 C1          -1.8090    -4.8470     0.0960 c6         1 F3Q      -0.017100
      2 C2          -0.8880    -6.0920    -0.0270 c6         1 F3Q      -0.082400
      3 C3           1.2300    -4.6700    -0.2980 c6         1 F3Q       0.067600
      4 C4           0.5390    -5.8000     0.5110 c6         1 F3Q      -0.093400
      5 C5          -1.0700    -3.5960    -0.3330 cc         1 F3Q      -0.070300
      6 N6           0.3160    -3.5280    -0.4960 na         1 F3Q       0.057000
      7 C7           0.6790    -2.2320    -0.8290 cc         1 F3Q      -0.154000
      8 C8          -0.4680    -1.5030    -0.9340 cd         1 F3Q      -0.103000
      9 C9          -1.5730    -2.3380    -0.6170 cd         1 F3Q      -0.246600
     10 C10         -3.0170    -1.9360    -0.5090 c          1 F3Q       0.662700
     11 O11         -3.8520    -2.6260     0.0690 o          1 F3Q      -0.588100
     12 N12         -3.3540    -0.6750    -1.0800 n          1 F3Q      -0.070000
     13 C13          2.0010    -1.6510    -1.0320 ca         1 F3Q       0.017000
     14 C14          2.8330    -2.1780    -2.0450 ca         1 F3Q      -0.089000
     15 C15          2.4300    -0.5240    -0.2700 ca         1 F3Q      -0.125600
     16 C16          4.4700    -0.4710    -1.5710 ca         1 F3Q       0.050100
     17 C17          4.0640    -1.5600    -2.2860 ca         1 F3Q       0.058100
     18 O18          4.9740    -1.9390    -3.2180 os         1 F3Q      -0.343100
     19 C19          6.0320    -0.9250    -3.0700 c5         1 F3Q       0.375600
     20 O20          5.6950    -0.0280    -1.9530 os         1 F3Q      -0.342100
     21 C21          1.6000     0.0050     0.8800 c          1 F3Q       0.639700
     22 N22          1.5070     1.4100     1.0140 n          1 F3Q      -0.381800
     23 O23          1.1110    -0.7580     1.7060 o          1 F3Q      -0.574100
     24 C24          0.9880     2.0720     2.2430 c6         1 F3Q       0.105700
     25 C25         -0.5440     2.2230     2.1270 c6         1 F3Q      -0.059100
     26 C26          1.3610     2.2800    -0.1820 c6         1 F3Q       0.140300
     27 C27         -0.0110     2.9740    -0.2610 ca         1 F3Q      -0.115300
     28 C28         -0.9220     2.9310     0.8240 ca         1 F3Q      -0.058300
     29 C29         -2.1740     3.5660     0.7120 ca         1 F3Q      -0.108000
     30 C30         -2.5120     4.2660    -0.4570 ca         1 F3Q      -0.104000
     31 C31         -1.6010     4.3290    -1.5240 ca         1 F3Q      -0.114000
     32 C32         -0.3600     3.6780    -1.4300 ca         1 F3Q      -0.102000
     33 C33          1.4720     1.4910     3.6160 c3         1 F3Q       0.180800
     34 C34          3.6840     0.0750    -0.5520 ca         1 F3Q      -0.075000
     35 N35          2.9400     1.2560     3.7370 n3         1 F3Q      -0.721600
     36 C36          3.3050     0.5500     5.0030 c6         1 F3Q       0.134300
     37 C37          4.8360     0.2780     5.0930 c6         1 F3Q       0.153600
     38 O38          5.5770     1.5120     4.9380 os         1 F3Q      -0.452000
     39 C39          5.2960     2.1750     3.6810 c6         1 F3Q       0.153600
     40 C40          3.7750     2.4870     3.5580 c6         1 F3Q       0.134300
     41 C41         -4.3330     0.1930    -0.4440 ca         1 F3Q      -0.069000
     42 C42         -2.8050    -0.2500    -2.3580 ca         1 F3Q      -0.023000
     43 C43         -4.4400     0.2200     0.9650 ca         1 F3Q      -0.070000
     44 C44         -5.3660     1.0670     1.5980 ca         1 F3Q      -0.170000
     45 C45         -6.2060     1.8890     0.8360 ca         1 F3Q       0.133100
     46 C46         -6.1260     1.8630    -0.5640 ca         1 F3Q      -0.170000
     47 C47         -5.1990     1.0190    -1.2010 ca         1 F3Q      -0.070000
     48 C48         -2.4710    -1.2050    -3.3470 ca         1 F3Q      -0.120000
     49 C49         -1.9120    -0.8040    -4.5730 ca         1 F3Q      -0.101500
     50 C50         -1.6730     0.5550    -4.8270 ca         1 F3Q      -0.122000
     51 C51         -1.9930     1.5130    -3.8540 ca         1 F3Q      -0.101500
     52 C52         -2.5520     1.1130    -2.6290 ca         1 F3Q      -0.120000
     53 O53         -7.1000     2.7060     1.4600 oh         1 F3Q      -0.535100
     54 H1          -2.7130    -5.0030    -0.5080 hc         1 F3Q       0.072700
     55 H2          -2.1450    -4.7420     1.1360 hc         1 F3Q       0.072700
     56 H3          -1.3330    -6.9380     0.5150 hc         1 F3Q       0.047200
     57 H4          -0.8240    -6.3980    -1.0810 hc         1 F3Q       0.047200
     58 H5           2.1370    -4.3310     0.2210 h1         1 F3Q       0.062200
     59 H6           1.5240    -5.0500    -1.2860 h1         1 F3Q       0.062200
     60 H7           0.4780    -5.5080     1.5690 hc         1 F3Q       0.058200
     61 H8           1.1520    -6.7100     0.4740 hc         1 F3Q       0.058200
     62 H9          -0.5040    -0.4420    -1.1650 ha         1 F3Q       0.144000
     63 H10          2.5180    -3.0290    -2.6420 ha         1 F3Q       0.142000
     64 H11          6.9890    -1.4200    -2.8680 h2         1 F3Q       0.066200
     65 H12          1.3850     3.0980     2.2280 h1         1 F3Q       0.048700
     66 H13         -1.0230     1.2350     2.1620 hc         1 F3Q       0.067700
     67 H14         -0.9260     2.7900     2.9870 hc         1 F3Q       0.067700
     68 H15          2.1500     3.0460    -0.1610 h1         1 F3Q       0.062200
     69 H16          1.5020     1.6960    -1.1020 h1         1 F3Q       0.062200
     70 H17         -2.8810     3.5270     1.5380 ha         1 F3Q       0.114000
     71 H18         -3.4780     4.7600    -0.5350 ha         1 F3Q       0.117000
     72 H19         -1.8620     4.8730    -2.4300 ha         1 F3Q       0.113000
     73 H20          0.3350     3.7240    -2.2660 ha         1 F3Q       0.110000
     74 H21          1.1470     2.1880     4.4010 h1         1 F3Q       0.045700
     75 H22          0.9330     0.5540     3.8000 h1         1 F3Q       0.045700
     76 H23          4.0480     0.9240     0.0230 ha         1 F3Q       0.147000
     77 H25          3.0020     1.1490     5.8750 h1         1 F3Q       0.040950
     78 H26          2.7720    -0.4100     5.0710 h1         1 F3Q       0.040950
     79 H27          5.0810    -0.1700     6.0660 h1         1 F3Q       0.049200
     80 H28          5.1380    -0.4280     4.3050 h1         1 F3Q       0.049200
     81 H29          5.8760     3.1070     3.6280 h1         1 F3Q       0.049200
     82 H30          5.6140     1.5270     2.8510 h1         1 F3Q       0.049200
     83 H31          3.5980     2.9370     2.5710 h1         1 F3Q       0.040950
     84 H32          3.5070     3.2430     4.3110 h1         1 F3Q       0.040950
     85 H33         -3.7880    -0.3950     1.5820 ha         1 F3Q       0.124000
     86 H34         -5.4290     1.0870     2.6830 ha         1 F3Q       0.120000
     87 H35         -6.7810     2.4880    -1.1660 ha         1 F3Q       0.120000
     88 H36         -5.1740     0.9990    -2.2880 ha         1 F3Q       0.124000
     89 H37         -2.6520    -2.2630    -3.1780 ha         1 F3Q       0.124500
     90 H38         -1.6630    -1.5490    -5.3250 ha         1 F3Q       0.112000
     91 H39         -1.2390     0.8640    -5.7750 ha         1 F3Q       0.112000
     92 H40         -1.8000     2.5660    -4.0450 ha         1 F3Q       0.112000
     93 H41         -2.7640     1.8660    -1.8770 ha         1 F3Q       0.124500
     94 H42         -7.6020     3.1980     0.7750 ho         1 F3Q       0.464000
     95 H24          6.0990    -0.3390    -3.9950 h2         1 F3Q       0.066200
@<TRIPOS>BOND
     1     1     2 1   
     2     1     5 1   
     3     1    54 1   
     4     1    55 1   
     5     2     4 1   
     6     2    56 1   
     7     2    57 1   
     8     3     4 1   
     9     3     6 1   
    10     3    58 1   
    11     3    59 1   
    12     4    60 1   
    13     4    61 1   
    14     5     6 1   
    15     5     9 2   
    16     6     7 1   
    17     7     8 2   
    18     7    13 1   
    19     8     9 1   
    20     8    62 1   
    21     9    10 1   
    22    10    11 2   
    23    10    12 1   
    24    12    41 1   
    25    12    42 1   
    26    13    14 ar  
    27    13    15 ar  
    28    14    17 ar  
    29    14    63 1   
    30    15    21 1   
    31    15    34 ar  
    32    16    17 ar  
    33    16    20 1   
    34    16    34 ar  
    35    17    18 1   
    36    18    19 1   
    37    19    20 1   
    38    19    64 1   
    39    19    95 1   
    40    21    22 1   
    41    21    23 2   
    42    22    24 1   
    43    22    26 1   
    44    24    25 1   
    45    24    33 1   
    46    24    65 1   
    47    25    28 1   
    48    25    66 1   
    49    25    67 1   
    50    26    27 1   
    51    26    68 1   
    52    26    69 1   
    53    27    28 ar  
    54    27    32 ar  
    55    28    29 ar  
    56    29    30 ar  
    57    29    70 1   
    58    30    31 ar  
    59    30    71 1   
    60    31    32 ar  
    61    31    72 1   
    62    32    73 1   
    63    33    35 1   
    64    33    74 1   
    65    33    75 1   
    66    34    76 1   
    67    35    36 1   
    68    35    40 1   
    69    36    37 1   
    70    36    77 1   
    71    36    78 1   
    72    37    38 1   
    73    37    79 1   
    74    37    80 1   
    75    38    39 1   
    76    39    40 1   
    77    39    81 1   
    78    39    82 1   
    79    40    83 1   
    80    40    84 1   
    81    41    43 ar  
    82    41    47 ar  
    83    42    48 ar  
    84    42    52 ar  
    85    43    44 ar  
    86    43    85 1   
    87    44    45 ar  
    88    44    86 1   
    89    45    46 ar  
    90    45    53 1   
    91    46    47 ar  
    92    46    87 1   
    93    47    88 1   
    94    48    49 ar  
    95    48    89 1   
    96    49    50 ar  
    97    49    90 1   
    98    50    51 ar  
    99    50    91 1   
   100    51    52 ar  
   101    51    92 1   
   102    52    93 1   
   103    53    94 1   
@<TRIPOS>SUBSTRUCTURE
     1 F3Q         1 TEMP              0 ****  ****    0 ROOT
