@<TRIPOS>MOLECULE
F3Q
   95   103     1     0     0
SMALL
bcc


@<TRIPOS>ATOM
      1 C1          -1.8090    -4.0470     0.4890 c6         1 F3Q      -0.017100
      2 C2          -0.8760    -5.2530     0.4750 c6         1 F3Q      -0.082400
      3 C3           1.1360    -3.8250     0.0950 c6         1 F3Q       0.038300
      4 C4           0.4940    -4.8560     1.0050 c6         1 F3Q      -0.093400
      5 C5          -1.1490    -2.8320    -0.0770 cc         1 F3Q      -0.019600
      6 N6           0.1940    -2.7680    -0.2330 na         1 F3Q      -0.015100
      7 C7           0.5520    -1.5450    -0.7500 cc         1 F3Q      -0.103300
      8 C8          -0.5870    -0.8190    -0.9410 cd         1 F3Q      -0.121000
      9 C9          -1.6780    -1.6280    -0.5190 cd         1 F3Q      -0.246600
     10 C10         -3.0970    -1.2900    -0.4480 c          1 F3Q       0.729700
     11 O11         -3.8390    -1.7690     0.3980 o          1 F3Q      -0.588100
     12 N12         -3.5800    -0.3690    -1.3540 n          1 F3Q      -0.322200
     13 C13          1.9550    -1.1770    -0.9960 ca         1 F3Q       0.017000
     14 C14          2.5970    -1.6150    -2.1670 ca         1 F3Q      -0.107000
     15 C15          2.6300    -0.3670    -0.0880 ca         1 F3Q      -0.125600
     16 C16          4.5590    -0.4070    -1.4540 ca         1 F3Q       0.050100
     17 C17          3.8960    -1.2210    -2.3610 ca         1 F3Q       0.058100
     18 O18          4.7150    -1.4970    -3.4000 os         1 F3Q      -0.319900
     19 C19          5.9780    -0.9160    -3.0930 c5         1 F3Q       0.329200
     20 O20          5.8090    -0.1570    -1.9010 os         1 F3Q      -0.318900
     21 C21          1.9780     0.0010     1.2100 c          1 F3Q       0.706700
     22 N22          1.8640     1.3290     1.4540 n          1 F3Q      -0.448800
     23 O23          1.6510    -0.8730     1.9920 o          1 F3Q      -0.574100
     24 C24          1.3890     1.8350     2.7350 c6         1 F3Q       0.105700
     25 C25         -0.1330     1.8230     2.7290 c6         1 F3Q      -0.059100
     26 C26          1.6220     2.2870     0.3950 c6         1 F3Q       0.140300
     27 C27          0.1800     2.7440     0.3940 ca         1 F3Q      -0.115300
     28 C28         -0.6500     2.5260     1.4970 ca         1 F3Q      -0.058300
     29 C29         -1.9620     2.9930     1.4520 ca         1 F3Q      -0.126000
     30 C30         -2.4470     3.6710     0.3450 ca         1 F3Q      -0.122000
     31 C31         -1.6160     3.8900    -0.7470 ca         1 F3Q      -0.132000
     32 C32         -0.3120     3.4230    -0.7170 ca         1 F3Q      -0.120000
     33 C33          2.0150     1.1720     3.9590 c3         1 F3Q       0.180800
     34 C34          3.9520     0.0440    -0.3110 ca         1 F3Q      -0.093000
     35 N35          3.4180     0.8870     3.7770 n3         1 F3Q      -0.721600
     36 C36          3.9310    -0.0290     4.7720 c6         1 F3Q       0.134300
     37 C37          5.3670    -0.3880     4.4450 c6         1 F3Q       0.130400
     38 O38          6.1830     0.7610     4.3640 os         1 F3Q      -0.405600
     39 C39          5.6850     1.6650     3.4030 c6         1 F3Q       0.130400
     40 C40          4.2520     2.0680     3.6950 c6         1 F3Q       0.134300
     41 C41         -4.8480     0.2270    -1.1180 ca         1 F3Q       0.023600
     42 C42         -2.9640    -0.1000    -2.6020 ca         1 F3Q       0.069600
     43 C43         -5.0460     1.0430    -0.0100 ca         1 F3Q      -0.088000
     44 C44         -6.2710     1.6460     0.2140 ca         1 F3Q      -0.188000
     45 C45         -7.3200     1.4500    -0.6820 ca         1 F3Q       0.133100
     46 C46         -7.1240     0.6390    -1.7980 ca         1 F3Q      -0.188000
     47 C47         -5.8960     0.0290    -2.0060 ca         1 F3Q      -0.088000
     48 C48         -2.6280    -1.1360    -3.4660 ca         1 F3Q      -0.138000
     49 C49         -2.0240    -0.8550    -4.6830 ca         1 F3Q      -0.119500
     50 C50         -1.7730     0.4600    -5.0540 ca         1 F3Q      -0.140000
     51 C51         -2.1320     1.4950    -4.1990 ca         1 F3Q      -0.119500
     52 C52         -2.7250     1.2180    -2.9770 ca         1 F3Q      -0.138000
     53 O53         -8.4910     2.0670    -0.4260 oh         1 F3Q      -0.496100
     54 H1          -2.7280    -4.2620    -0.0590 hc         1 F3Q       0.072700
     55 H2          -2.1180    -3.8390     1.5180 hc         1 F3Q       0.072700
     56 H3          -1.3040    -6.0540     1.0790 hc         1 F3Q       0.047200
     57 H4          -0.7770    -5.6420    -0.5430 hc         1 F3Q       0.047200
     58 H5           2.0050    -3.3750     0.5720 h1         1 F3Q       0.062200
     59 H6           1.4760    -4.3000    -0.8290 h1         1 F3Q       0.062200
     60 H7           0.3970    -4.4500     2.0160 hc         1 F3Q       0.058200
     61 H8           1.1590    -5.7180     1.0690 hc         1 F3Q       0.058200
     62 H9          -0.6280     0.1910    -1.3160 ha         1 F3Q       0.162000
     63 H10          2.0750    -2.2270    -2.8900 ha         1 F3Q       0.160000
     64 H11          6.7190    -1.7030    -2.9300 h2         1 F3Q       0.066200
     65 H12          1.6980     2.8870     2.7480 h1         1 F3Q       0.048700
     66 H13         -0.4920     0.7900     2.7560 hc         1 F3Q       0.067700
     67 H14         -0.5190     2.3140     3.6260 hc         1 F3Q       0.067700
     68 H15          2.2830     3.1500     0.5290 h1         1 F3Q       0.062200
     69 H16          1.8740     1.8570    -0.5730 h1         1 F3Q       0.062200
     70 H17         -2.6090     2.8340     2.3070 ha         1 F3Q       0.132000
     71 H18         -3.4680     4.0310     0.3360 ha         1 F3Q       0.135000
     72 H19         -1.9830     4.4200    -1.6170 ha         1 F3Q       0.131000
     73 H20          0.3370     3.5850    -1.5700 ha         1 F3Q       0.128000
     74 H21          1.8330     1.8500     4.8110 h1         1 F3Q       0.045700
     75 H22          1.5040     0.2380     4.1890 h1         1 F3Q       0.045700
     76 H23          4.4680     0.6810     0.3950 ha         1 F3Q       0.165000
     77 H25          3.8790     0.3870     5.7940 h1         1 F3Q       0.040950
     78 H26          3.3290    -0.9410     4.7630 h1         1 F3Q       0.040950
     79 H27          5.7850    -1.0300     5.2210 h1         1 F3Q       0.049200
     80 H28          5.3910    -0.9420     3.4950 h1         1 F3Q       0.049200
     81 H29          6.3340     2.5420     3.4120 h1         1 F3Q       0.049200
     82 H30          5.7330     1.2180     2.3990 h1         1 F3Q       0.049200
     83 H31          3.9110     2.7120     2.8820 h1         1 F3Q       0.040950
     84 H32          4.2110     2.6680     4.6210 h1         1 F3Q       0.040950
     85 H33         -4.2310     1.2170     0.6810 ha         1 F3Q       0.142000
     86 H34         -6.4160     2.2790     1.0800 ha         1 F3Q       0.138000
     87 H35         -7.9290     0.4750    -2.5040 ha         1 F3Q       0.138000
     88 H36         -5.7580    -0.6030    -2.8740 ha         1 F3Q       0.142000
     89 H37         -2.8360    -2.1610    -3.1870 ha         1 F3Q       0.142500
     90 H38         -1.7610    -1.6660    -5.3490 ha         1 F3Q       0.130000
     91 H39         -1.3050     0.6780    -6.0050 ha         1 F3Q       0.130000
     92 H40         -1.9410     2.5230    -4.4790 ha         1 F3Q       0.130000
     93 H41         -2.9850     2.0210    -2.3000 ha         1 F3Q       0.142500
     94 H42         -9.1420     1.8500    -1.1030 ho         1 F3Q       0.425000
     95 H24          6.2900    -0.2600    -3.9070 h2         1 F3Q       0.066200
@<TRIPOS>BOND
     1     1     2 1   
     2     1     5 1   
     3     1    54 1   
     4     1    55 1   
     5     2     4 1   
     6     2    56 1   
     7     2    57 1   
     8     3     4 1   
     9     3     6 1   
    10     3    58 1   
    11     3    59 1   
    12     4    60 1   
    13     4    61 1   
    14     5     6 1   
    15     5     9 2   
    16     6     7 1   
    17     7     8 2   
    18     7    13 1   
    19     8     9 1   
    20     8    62 1   
    21     9    10 1   
    22    10    11 2   
    23    10    12 1   
    24    12    41 1   
    25    12    42 1   
    26    13    14 ar  
    27    13    15 ar  
    28    14    17 ar  
    29    14    63 1   
    30    15    21 1   
    31    15    34 ar  
    32    16    17 ar  
    33    16    20 1   
    34    16    34 ar  
    35    17    18 1   
    36    18    19 1   
    37    19    20 1   
    38    19    64 1   
    39    19    95 1   
    40    21    22 1   
    41    21    23 2   
    42    22    24 1   
    43    22    26 1   
    44    24    25 1   
    45    24    33 1   
    46    24    65 1   
    47    25    28 1   
    48    25    66 1   
    49    25    67 1   
    50    26    27 1   
    51    26    68 1   
    52    26    69 1   
    53    27    28 ar  
    54    27    32 ar  
    55    28    29 ar  
    56    29    30 ar  
    57    29    70 1   
    58    30    31 ar  
    59    30    71 1   
    60    31    32 ar  
    61    31    72 1   
    62    32    73 1   
    63    33    35 1   
    64    33    74 1   
    65    33    75 1   
    66    34    76 1   
    67    35    36 1   
    68    35    40 1   
    69    36    37 1   
    70    36    77 1   
    71    36    78 1   
    72    37    38 1   
    73    37    79 1   
    74    37    80 1   
    75    38    39 1   
    76    39    40 1   
    77    39    81 1   
    78    39    82 1   
    79    40    83 1   
    80    40    84 1   
    81    41    43 ar  
    82    41    47 ar  
    83    42    48 ar  
    84    42    52 ar  
    85    43    44 ar  
    86    43    85 1   
    87    44    45 ar  
    88    44    86 1   
    89    45    46 ar  
    90    45    53 1   
    91    46    47 ar  
    92    46    87 1   
    93    47    88 1   
    94    48    49 ar  
    95    48    89 1   
    96    49    50 ar  
    97    49    90 1   
    98    50    51 ar  
    99    50    91 1   
   100    51    52 ar  
   101    51    92 1   
   102    52    93 1   
   103    53    94 1   
@<TRIPOS>SUBSTRUCTURE
     1 F3Q         1 TEMP              0 ****  ****    0 ROOT
