@<TRIPOS>MOLECULE
F3R
   40    41     1     0     0
SMALL
abcg2


@<TRIPOS>ATOM
      1 C15         57.3450    -4.1570    32.1650 c6         1 F3R      -0.034700
      2 C17         55.1330    -3.1350    33.0760 c6         1 F3R      -0.072900
      3 C20         57.7270    -2.7390    31.7100 c6         1 F3R      -0.063400
      4 C01         61.4890    -5.5540    36.0930 c3         1 F3R      -0.107100
      5 C02         60.3620    -5.6400    35.0650 c3         1 F3R       0.040700
      6 C03         59.9210    -7.1000    34.9560 c          1 F3R       0.593100
      7 O04         60.5470    -7.9030    34.3070 o          1 F3R      -0.503100
      8 N05         58.8110    -7.4090    35.6970 ns         1 F3R      -0.489400
      9 C06         58.2460    -8.6460    35.8170 cc         1 F3R       0.524400
     10 N07         57.1390    -8.8640    36.5340 na         1 F3R      -0.260700
     11 N08         56.8390   -10.1550    36.4620 nc         1 F3R      -0.197800
     12 N09         57.7300   -10.6890    35.7320 nd         1 F3R      -0.029000
     13 N10         58.6270    -9.7930    35.3070 nd         1 F3R      -0.382000
     14 N11         59.3050    -4.7290    35.4340 ns         1 F3R      -0.547900
     15 O13         57.5810    -3.3540    35.0840 o          1 F3R      -0.576100
     16 C14         58.2570    -4.7700    33.2380 c3         1 F3R      -0.150400
     17 C16         55.8300    -4.3030    32.3820 c6         1 F3R      -0.063400
     18 C18         55.5100    -1.8030    32.4370 c6         1 F3R      -0.068400
     19 C19         57.0210    -1.5980    32.4350 c6         1 F3R      -0.072900
     20 H1          57.5720    -4.8030    31.3110 hc         1 F3R       0.037700
     21 H2          54.0510    -3.2850    33.0170 hc         1 F3R       0.046200
     22 H3          55.3900    -3.1140    34.1340 hc         1 F3R       0.046200
     23 H4          58.8120    -2.6140    31.7640 hc         1 F3R       0.034450
     24 H5          57.4700    -2.6590    30.6480 hc         1 F3R       0.034450
     25 H6          61.8850    -4.5400    36.1220 hc         1 F3R       0.058367
     26 H7          61.1320    -5.8170    37.0900 hc         1 F3R       0.058367
     27 H8          62.3000    -6.2280    35.8280 hc         1 F3R       0.058367
     28 H9          60.7740    -5.3780    34.0870 h1         1 F3R       0.088700
     29 H10         58.3630    -6.6490    36.1920 hn         1 F3R       0.339500
     30 H11         56.5650    -8.2180    37.0610 hn         1 F3R       0.385000
     31 H12         59.3650    -4.3140    36.3540 hn         1 F3R       0.316500
     32 H13         57.9790    -5.8260    33.3440 hc         1 F3R       0.058700
     33 H14         59.2680    -4.7890    32.8220 hc         1 F3R       0.058700
     34 H15         55.3750    -4.4150    31.3920 hc         1 F3R       0.034450
     35 H16         55.6190    -5.2390    32.9090 hc         1 F3R       0.034450
     36 H17         55.0160    -0.9800    32.9610 hc         1 F3R       0.035200
     37 H18         55.1430    -1.7760    31.4040 hc         1 F3R       0.035200
     38 H19         57.3790    -1.5110    33.4610 hc         1 F3R       0.046200
     39 H20         57.2690    -0.6560    31.9380 hc         1 F3R       0.046200
     40 C12         58.3320    -4.2000    34.6340 c          1 F3R       0.607100
@<TRIPOS>BOND
     1     1     3 1   
     2     1    16 1   
     3     1    17 1   
     4     1    20 1   
     5     2    17 1   
     6     2    18 1   
     7     2    21 1   
     8     2    22 1   
     9     3    19 1   
    10     3    23 1   
    11     3    24 1   
    12     4     5 1   
    13     4    25 1   
    14     4    26 1   
    15     4    27 1   
    16     5     6 1   
    17     5    14 1   
    18     5    28 1   
    19     6     7 2   
    20     6     8 1   
    21     8     9 1   
    22     8    29 1   
    23     9    10 1   
    24     9    13 2   
    25    10    11 1   
    26    10    30 1   
    27    11    12 2   
    28    12    13 1   
    29    14    31 1   
    30    14    40 1   
    31    15    40 2   
    32    16    32 1   
    33    16    33 1   
    34    16    40 1   
    35    17    34 1   
    36    17    35 1   
    37    18    19 1   
    38    18    36 1   
    39    18    37 1   
    40    19    38 1   
    41    19    39 1   
@<TRIPOS>SUBSTRUCTURE
     1 F3R         1 TEMP              0 ****  ****    0 ROOT
