@<TRIPOS>MOLECULE
F3R
   40    41     1     0     0
SMALL
No Charge or Current Charge


@<TRIPOS>ATOM
      1 C15         57.9230    -4.1310    31.9330 c6         1 F3R      -0.034700
      2 C17         56.0950    -4.5490    33.7250 c6         1 F3R      -0.072900
      3 C20         57.2290    -2.7710    31.6030 c6         1 F3R      -0.063400
      4 C01         61.4140    -5.5600    36.2790 c3         1 F3R      -0.107100
      5 C02         60.4020    -5.6070    35.1150 c3         1 F3R       0.040700
      6 C03         59.5810    -6.9320    35.1340 c          1 F3R       0.593100
      7 O04         60.0830    -8.0000    34.8150 o          1 F3R      -0.503100
      8 N05         58.2590    -6.7990    35.4930 ns         1 F3R      -0.489400
      9 C06         57.2840    -7.7650    35.5320 cc         1 F3R       0.524400
     10 N07         56.0010    -7.5710    35.9400 na         1 F3R      -0.260700
     11 N08         55.2930    -8.7240    35.8480 nc         1 F3R      -0.197800
     12 N09         56.1510    -9.5940    35.3880 nd         1 F3R      -0.029000
     13 N10         57.3890    -9.0280    35.1860 nd         1 F3R      -0.382000
     14 N11         59.5400    -4.3940    35.1590 ns         1 F3R      -0.547900
     15 O13         59.2040    -2.3270    34.3750 o          1 F3R      -0.576100
     16 C14         59.3100    -4.0410    32.6660 c3         1 F3R      -0.150400
     17 C16         56.9240    -5.1450    32.5610 c6         1 F3R      -0.063400
     18 C18         55.3430    -3.2780    33.2700 c6         1 F3R      -0.068400
     19 C19         56.3270    -2.2120    32.7370 c6         1 F3R      -0.072900
     20 H1          58.2010    -4.5570    30.9580 hc         1 F3R       0.037700
     21 H2          55.3710    -5.2950    34.0790 hc         1 F3R       0.046200
     22 H3          56.7410    -4.3120    34.5800 hc         1 F3R       0.046200
     23 H4          57.9800    -2.0210    31.3190 hc         1 F3R       0.034450
     24 H5          56.6020    -2.9120    30.7110 hc         1 F3R       0.034450
     25 H6          62.0180    -4.6450    36.2290 hc         1 F3R       0.058367
     26 H7          60.8990    -5.5820    37.2470 hc         1 F3R       0.058367
     27 H8          62.0960    -6.4180    36.2340 hc         1 F3R       0.058367
     28 H9          60.9890    -5.6120    34.1890 h1         1 F3R       0.088700
     29 H10         57.9940    -5.8590    35.7460 hn         1 F3R       0.339500
     30 H11         55.5930    -6.7100    36.2820 hn         1 F3R       0.385000
     31 H12         59.4520    -3.9510    36.0680 hn         1 F3R       0.316500
     32 H13         59.7330    -5.0480    32.6250 hc         1 F3R       0.058700
     33 H14         59.9590    -3.3850    32.0740 hc         1 F3R       0.058700
     34 H15         56.2290    -5.4850    31.7790 hc         1 F3R       0.034450
     35 H16         57.4560    -6.0460    32.8940 hc         1 F3R       0.034450
     36 H17         54.7650    -2.8660    34.1070 hc         1 F3R       0.035200
     37 H18         54.6170    -3.5380    32.4860 hc         1 F3R       0.035200
     38 H19         56.9300    -1.8230    33.5630 hc         1 F3R       0.046200
     39 H20         55.7600    -1.3510    32.3570 hc         1 F3R       0.046200
     40 C12         59.3430    -3.5090    34.1160 c          1 F3R       0.607100
@<TRIPOS>BOND
     1     1     3 1   
     2     1    16 1   
     3     1    17 1   
     4     1    20 1   
     5     2    17 1   
     6     2    18 1   
     7     2    21 1   
     8     2    22 1   
     9     3    19 1   
    10     3    23 1   
    11     3    24 1   
    12     4     5 1   
    13     4    25 1   
    14     4    26 1   
    15     4    27 1   
    16     5     6 1   
    17     5    14 1   
    18     5    28 1   
    19     6     7 2   
    20     6     8 1   
    21     8     9 1   
    22     8    29 1   
    23     9    10 1   
    24     9    13 2   
    25    10    11 1   
    26    10    30 1   
    27    11    12 2   
    28    12    13 1   
    29    14    31 1   
    30    14    40 1   
    31    15    40 2   
    32    16    32 1   
    33    16    33 1   
    34    16    40 1   
    35    17    34 1   
    36    17    35 1   
    37    18    19 1   
    38    18    36 1   
    39    18    37 1   
    40    19    38 1   
    41    19    39 1   
@<TRIPOS>SUBSTRUCTURE
     1 F3R         1 TEMP              0 ****  ****    0 ROOT
