@<TRIPOS>MOLECULE
F3T
   19    18     1     0     0
SMALL
bcc


@<TRIPOS>ATOM
      1 N           -0.9620     1.8680    -0.5440 n8         1 F3T      -0.890800
      2 C1           2.9820    -0.0740     0.2630 c          1 F3T       0.931600
      3 F1          -2.3540    -0.6510    -0.9960 f          1 F3T      -0.249300
      4 O1           3.9690     0.5560    -0.1640 o          1 F3T      -0.836300
      5 C2           1.6670     0.7140     0.4180 c3         1 F3T      -0.240400
      6 F2          -3.1880     0.4750     0.6320 f          1 F3T      -0.249300
      7 O2           2.9620    -1.2720     0.6130 o          1 F3T      -0.836300
      8 C3           0.4430    -0.0780    -0.0100 c3         1 F3T       0.174100
      9 F3          -1.9860    -1.2640     1.0360 f          1 F3T      -0.249300
     10 O3           0.5130    -0.4420    -1.3730 oh         1 F3T      -0.590800
     11 C4          -0.8510     0.6990     0.2960 c3         1 F3T       0.082500
     12 C5          -2.0880    -0.1910     0.2350 c3         1 F3T       0.607900
     13 HN          -1.1950     1.6280    -1.4990 hn         1 F3T       0.349800
     14 HNA         -1.6730     2.5030    -0.2100 hn         1 F3T       0.349800
     15 H2           1.5610     0.9810     1.4760 hc         1 F3T       0.031700
     16 H2A          1.7130     1.6580    -0.1310 hc         1 F3T       0.031700
     17 H3           0.4390    -1.0130     0.5550 h1         1 F3T       0.101700
     18 HO3          0.8010     0.3270    -1.8760 ho         1 F3T       0.400000
     19 H4          -0.7870     1.0340     1.3360 h1         1 F3T       0.082700
@<TRIPOS>BOND
     1     1    11 1   
     2     1    13 1   
     3     1    14 1   
     4     2     4 1   
     5     2     5 1   
     6     2     7 1   
     7     3    12 1   
     8     5     8 1   
     9     5    15 1   
    10     5    16 1   
    11     6    12 1   
    12     8    10 1   
    13     8    11 1   
    14     8    17 1   
    15     9    12 1   
    16    10    18 1   
    17    11    12 1   
    18    11    19 1   
@<TRIPOS>SUBSTRUCTURE
     1 F3T         1 TEMP              0 ****  ****    0 ROOT
