@<TRIPOS>MOLECULE
F3T
   19    18     1     0     0
SMALL
No Charge or Current Charge


@<TRIPOS>ATOM
      1 N           -1.0430     1.8020    -0.8060 n8         1 F3T      -1.001200
      2 C1           2.9620    -0.1430     0.5230 c          1 F3T       0.721000
      3 F1          -2.1520    -0.9600    -1.1670 f          1 F3T      -0.128000
      4 O1           3.7750     0.0570    -0.3660 o          1 F3T      -0.731000
      5 C2           1.6920     0.7110     0.5670 c3         1 F3T      -0.240400
      6 F2          -3.2290     0.2330     0.3150 f          1 F3T      -0.128000
      7 O2           3.1020    -0.9960     1.3870 o          1 F3T      -0.731000
      8 C3           0.5290    -0.0420    -0.1210 c3         1 F3T       0.197300
      9 F3          -1.9050    -1.3740     0.9670 f          1 F3T      -0.128000
     10 O3           0.7190     0.0120    -1.5320 oh         1 F3T      -0.653000
     11 C4          -0.8620     0.6310     0.1310 c3         1 F3T       0.082500
     12 C5          -2.0530    -0.3850     0.0550 c3         1 F3T       0.244000
     13 HN          -2.0110     2.1440    -0.7320 hn         1 F3T       0.405000
     14 HNA         -0.4910     2.6000    -0.4620 hn         1 F3T       0.405000
     15 H2           1.3760     0.8280     1.6110 hc         1 F3T       0.031700
     16 H2A          1.8350     1.6650     0.0430 hc         1 F3T       0.031700
     17 H3           0.5120    -1.0790     0.2470 h1         1 F3T       0.101700
     18 HO3          0.0820     0.7370    -1.7640 ho         1 F3T       0.439000
     19 H4          -0.8720     1.0180     1.1610 h1         1 F3T       0.082700
@<TRIPOS>BOND
     1     1    11 1   
     2     1    13 1   
     3     1    14 1   
     4     2     4 1   
     5     2     5 1   
     6     2     7 1   
     7     3    12 1   
     8     5     8 1   
     9     5    15 1   
    10     5    16 1   
    11     6    12 1   
    12     8    10 1   
    13     8    11 1   
    14     8    17 1   
    15     9    12 1   
    16    10    18 1   
    17    11    12 1   
    18    11    19 1   
@<TRIPOS>SUBSTRUCTURE
     1 F3T         1 TEMP              0 ****  ****    0 ROOT
