@<TRIPOS>MOLECULE
F3U
   38    41     1     0     0
SMALL
bcc


@<TRIPOS>ATOM
      1 C02        -13.2880    10.6750    20.6710 c          1 F3U       0.592500
      2 C03        -13.4530    11.3610    19.4120 cc         1 F3U      -0.347200
      3 C04        -14.4170    12.3030    19.2470 cd         1 F3U       0.365700
      4 C06        -15.4610    13.8090    17.7680 ca         1 F3U       0.421000
      5 C07        -15.4870    14.3130    16.4800 ca         1 F3U      -0.279300
      6 C08        -16.4520    15.2550    16.1480 ca         1 F3U       0.181100
      7 C10        -17.3840    15.6810    17.1090 ca         1 F3U      -0.265000
      8 C11        -17.3350    15.1650    18.3810 ca         1 F3U       0.004000
      9 C12        -16.3730    14.2150    18.7500 ca         1 F3U      -0.205300
     10 C13        -16.2700    13.6490    20.0600 cc         1 F3U       0.213000
     11 C14        -17.3190    13.9510    21.0660 ca         1 F3U      -0.084000
     12 C15        -17.2990    15.0930    21.8740 ca         1 F3U      -0.083600
     13 C16        -16.1450    16.0880    21.7910 c          1 F3U       0.917200
     14 C19        -18.3450    15.3040    22.7670 ca         1 F3U      -0.125000
     15 C20        -19.3930    14.4060    22.8630 ca         1 F3U      -0.102000
     16 C21        -19.4130    13.2740    22.0560 ca         1 F3U      -0.232600
     17 C22        -20.5360    12.3300    22.1700 c          1 F3U       0.591500
     18 C24        -18.3710    13.0520    21.1580 ca         1 F3U      -0.075000
     19 C25        -15.3260    12.6790    20.2910 cd         1 F3U      -0.246100
     20 C26        -15.1570    12.0130    21.5490 cd         1 F3U      -0.013200
     21 C27        -14.2090    11.0730    21.7350 cc         1 F3U      -0.274200
     22 O01        -12.4280     9.8060    20.8490 o          1 F3U      -0.604100
     23 O05        -14.5110    12.8960    18.0380 os         1 F3U      -0.388800
     24 O09        -16.4530    15.7210    14.8970 oh         1 F3U      -0.496100
     25 O17        -15.2260    15.7670    21.0140 o          1 F3U      -0.796300
     26 O18        -16.2320    17.1070    22.4940 o          1 F3U      -0.796300
     27 O23        -20.6550    11.3200    21.5170 o          1 F3U      -0.545100
     28 H1         -12.7950    11.1090    18.5890 ha         1 F3U       0.146000
     29 H3         -14.7680    13.9760    15.7450 ha         1 F3U       0.158000
     30 H4         -18.1380    16.4130    16.8490 ha         1 F3U       0.130000
     31 H5         -18.0590    15.5010    19.1120 ha         1 F3U       0.151000
     32 H6         -18.3260    16.1850    23.3940 ha         1 F3U       0.159000
     33 H7         -20.1990    14.5830    23.5660 ha         1 F3U       0.115000
     34 H8         -21.2950    12.6140    22.9210 h4         1 F3U      -0.028800
     35 H9         -18.3850    12.1720    20.5250 ha         1 F3U       0.140000
     36 H10        -15.8170    12.2820    22.3650 ha         1 F3U       0.138000
     37 H11        -14.1050    10.5850    22.6970 ha         1 F3U       0.134000
     38 H12        -17.1620    16.3630    14.7650 ho         1 F3U       0.426000
@<TRIPOS>BOND
     1     1     2 1   
     2     1    21 1   
     3     1    22 2   
     4     2     3 2   
     5     2    28 1   
     6     3    19 1   
     7     3    23 1   
     8     4     5 ar  
     9     4     9 ar  
    10     4    23 1   
    11     5     6 ar  
    12     5    29 1   
    13     6     7 ar  
    14     6    24 1   
    15     7     8 ar  
    16     7    30 1   
    17     8     9 ar  
    18     8    31 1   
    19     9    10 1   
    20    10    11 1   
    21    10    19 2   
    22    11    12 ar  
    23    11    18 ar  
    24    12    13 1   
    25    12    14 ar  
    26    13    25 1   
    27    13    26 1   
    28    14    15 ar  
    29    14    32 1   
    30    15    16 ar  
    31    15    33 1   
    32    16    17 1   
    33    16    18 ar  
    34    17    27 2   
    35    17    34 1   
    36    18    35 1   
    37    19    20 1   
    38    20    21 2   
    39    20    36 1   
    40    21    37 1   
    41    24    38 1   
@<TRIPOS>SUBSTRUCTURE
     1 F3U         1 TEMP              0 ****  ****    0 ROOT
