@<TRIPOS>MOLECULE
F3U
   38    41     1     0     0
SMALL
No Charge or Current Charge


@<TRIPOS>ATOM
      1 C02        -13.3140    10.6580    20.6940 c          1 F3U       0.592500
      2 C03        -13.4370    11.3690    19.4290 cc         1 F3U      -0.397200
      3 C04        -14.4170    12.2980    19.2120 cd         1 F3U       0.256000
      4 C06        -15.4080    13.8500    17.7080 ca         1 F3U       0.246000
      5 C07        -15.4090    14.4480    16.4410 ca         1 F3U      -0.196000
      6 C08        -16.3820    15.3990    16.1190 ca         1 F3U       0.181100
      7 C10        -17.3550    15.7520    17.0620 ca         1 F3U      -0.247000
      8 C11        -17.3560    15.1520    18.3350 ca         1 F3U       0.022000
      9 C12        -16.3740    14.1950    18.6690 ca         1 F3U      -0.140000
     10 C13        -16.3520    13.5550    19.9880 cc         1 F3U       0.213000
     11 C14        -17.3430    13.8570    21.0260 ca         1 F3U      -0.084000
     12 C15        -17.2820    15.0560    21.7830 ca         1 F3U      -0.083600
     13 C16        -16.1730    16.0730    21.5900 c          1 F3U       0.706600
     14 C19        -18.2930    15.3130    22.7350 ca         1 F3U      -0.107000
     15 C20        -19.3400    14.4010    22.9400 ca         1 F3U      -0.084000
     16 C21        -19.4030    13.2130    22.1900 ca         1 F3U      -0.232600
     17 C22        -20.5350    12.2450    22.4160 c          1 F3U       0.591500
     18 C24        -18.4040    12.9510    21.2310 ca         1 F3U      -0.057000
     19 C25        -15.3680    12.6010    20.2480 cd         1 F3U      -0.180800
     20 C26        -15.3010    11.9460    21.5370 cd         1 F3U      -0.063200
     21 C27        -14.3000    11.0130    21.7220 cc         1 F3U      -0.324200
     22 O01        -12.4430     9.8230    20.8860 o          1 F3U      -0.604100
     23 O05        -14.4530    12.9140    17.9990 os         1 F3U      -0.300000
     24 O09        -16.3810    15.9780    14.8890 oh         1 F3U      -0.535100
     25 O17        -15.0160    15.6810    21.5480 o          1 F3U      -0.691000
     26 O18        -16.4840    17.2550    21.5460 o          1 F3U      -0.691000
     27 O23        -20.6560    11.1910    21.7980 o          1 F3U      -0.545100
     28 H1         -12.7100    11.1190    18.6680 ha         1 F3U       0.196000
     29 H3         -14.6550    14.1690    15.7110 ha         1 F3U       0.140000
     30 H4         -18.1170    16.4880    16.8200 ha         1 F3U       0.112000
     31 H5         -18.1230    15.4370    19.0520 ha         1 F3U       0.133000
     32 H6         -18.2610    16.2290    23.3220 ha         1 F3U       0.141000
     33 H7         -20.1030    14.6230    23.6830 ha         1 F3U       0.097000
     34 H8         -21.2780    12.5370    23.1910 h4         1 F3U      -0.028800
     35 H9         -18.4470    12.0410    20.6350 ha         1 F3U       0.122000
     36 H10        -15.9940    12.1640    22.3460 ha         1 F3U       0.188000
     37 H11        -14.1920    10.4840    22.6610 ha         1 F3U       0.184000
     38 H12        -17.1290    16.6110    14.8500 ho         1 F3U       0.465000
@<TRIPOS>BOND
     1     1     2 1   
     2     1    21 1   
     3     1    22 2   
     4     2     3 2   
     5     2    28 1   
     6     3    19 1   
     7     3    23 1   
     8     4     5 ar  
     9     4     9 ar  
    10     4    23 1   
    11     5     6 ar  
    12     5    29 1   
    13     6     7 ar  
    14     6    24 1   
    15     7     8 ar  
    16     7    30 1   
    17     8     9 ar  
    18     8    31 1   
    19     9    10 1   
    20    10    11 1   
    21    10    19 2   
    22    11    12 ar  
    23    11    18 ar  
    24    12    13 1   
    25    12    14 ar  
    26    13    25 1   
    27    13    26 1   
    28    14    15 ar  
    29    14    32 1   
    30    15    16 ar  
    31    15    33 1   
    32    16    17 1   
    33    16    18 ar  
    34    17    27 2   
    35    17    34 1   
    36    18    35 1   
    37    19    20 1   
    38    20    21 2   
    39    20    36 1   
    40    21    37 1   
    41    24    38 1   
@<TRIPOS>SUBSTRUCTURE
     1 F3U         1 TEMP              0 ****  ****    0 ROOT
