@<TRIPOS>MOLECULE
F3V
   12    11     1     0     0
SMALL
bcc


@<TRIPOS>ATOM
      1 N            1.9320    -0.0240    -0.0200 n8         1 F3V      -0.868800
      2 CA           0.6990     0.7210     0.0430 c3         1 F3V       0.046800
      3 C           -0.5230    -0.1560     0.0090 c          1 F3V       0.567100
      4 O           -0.4560    -1.3640     0.0160 o          1 F3V      -0.504100
      5 CM          -1.8450     0.5680    -0.0100 c3         1 F3V      -0.204100
      6 H1           2.7090     0.6230    -0.0430 hn         1 F3V       0.345800
      7 H2           2.0490    -0.5710     0.8230 hn         1 F3V       0.345800
      8 H4           0.5840     1.3730     0.9250 h1         1 F3V       0.045200
      9 H5           0.6330     1.3990    -0.8150 h1         1 F3V       0.045200
     10 H6          -1.7310     1.6500    -0.0080 hc         1 F3V       0.060033
     11 H7          -2.4080     0.2800    -0.8980 hc         1 F3V       0.060033
     12 H8          -2.4400     0.2790     0.8570 hc         1 F3V       0.060033
@<TRIPOS>BOND
     1     1     2 1   
     2     1     6 1   
     3     1     7 1   
     4     2     3 1   
     5     2     8 1   
     6     2     9 1   
     7     3     4 2   
     8     3     5 1   
     9     5    10 1   
    10     5    11 1   
    11     5    12 1   
@<TRIPOS>SUBSTRUCTURE
     1 F3V         1 TEMP              0 ****  ****    0 ROOT
