@<TRIPOS>MOLECULE
F3V
   12    11     1     0     0
SMALL
No Charge or Current Charge


@<TRIPOS>ATOM
      1 N            1.9970    -0.0460    -0.1580 n8         1 F3V      -0.979200
      2 CA           0.6930     0.6930    -0.0180 c3         1 F3V       0.046800
      3 C           -0.5930    -0.1520     0.2740 c          1 F3V       0.567100
      4 O           -0.5500    -1.2910     0.7280 o          1 F3V      -0.504100
      5 CM          -1.9280     0.5410    -0.0010 c3         1 F3V      -0.204100
      6 H1           2.7720     0.6270    -0.2390 hn         1 F3V       0.401000
      7 H2           2.2030    -0.5490     0.7160 hn         1 F3V       0.401000
      8 H4           0.7870     1.4270     0.7940 h1         1 F3V       0.045200
      9 H5           0.5140     1.2550    -0.9460 h1         1 F3V       0.045200
     10 H6          -1.9400     1.5070     0.5160 hc         1 F3V       0.060033
     11 H7          -1.9590     0.8430    -1.0540 hc         1 F3V       0.060033
     12 H8          -2.7920    -0.0770     0.2680 hc         1 F3V       0.060033
@<TRIPOS>BOND
     1     1     2 1   
     2     1     6 1   
     3     1     7 1   
     4     2     3 1   
     5     2     8 1   
     6     2     9 1   
     7     3     4 2   
     8     3     5 1   
     9     5    10 1   
    10     5    11 1   
    11     5    12 1   
@<TRIPOS>SUBSTRUCTURE
     1 F3V         1 TEMP              0 ****  ****    0 ROOT
