@<TRIPOS>MOLECULE
F3W
   49    53     1     0     0
SMALL
bcc


@<TRIPOS>ATOM
      1 C4          -2.0920     3.3220     0.3270 ca         1 F3W       0.492200
      2 C5          -4.3670    -0.0490    -0.5860 cc         1 F3W      -0.181200
      3 C6          -5.5080     0.6810    -0.7740 cd         1 F3W      -0.121100
      4 N1          -5.2480     2.0010    -0.5690 na         1 F3W      -0.255100
      5 C7           0.1520     0.6570     0.5890 cc         1 F3W       0.436400
      6 C8           1.4490     0.0250     0.8660 ca         1 F3W      -0.106900
      7 N2          -0.9800    -0.0380     0.2280 na         1 F3W      -0.125300
      8 C9           2.5890     0.5280     0.2470 ca         1 F3W      -0.068000
      9 C10          3.8450    -0.0230     0.4950 ca         1 F3W      -0.077800
     10 C11          3.9500    -1.0910     1.3910 ca         1 F3W      -0.095000
     11 C12          2.8230    -1.5830     2.0230 ca         1 F3W      -0.136000
     12 N3          -0.0400     1.9420     0.6740 nd         1 F3W      -0.539100
     13 C13          4.9920     0.5450    -0.2040 ce         1 F3W      -0.044200
     14 C14          6.2570     0.1080    -0.1260 cf         1 F3W      -0.066700
     15 C15          7.2940     0.7420    -0.8580 ch         1 F3W       0.184500
     16 N4           8.1520     1.2430    -1.4450 n1         1 F3W      -0.363800
     17 C16          1.5750    -1.0300     1.7670 ca         1 F3W      -0.100000
     18 C           -1.3620     2.1260     0.3680 ca         1 F3W      -0.091900
     19 N           -3.3720     3.3420     0.0230 nb         1 F3W      -0.692000
     20 C1          -1.9720     0.8960     0.0860 ca         1 F3W      -0.002200
     21 C2          -3.3380     0.8780    -0.2430 ca         1 F3W      -0.192100
     22 C3          -3.9350     2.1620    -0.2420 ca         1 F3W       0.421800
     23 C17         -1.0350    -1.4610    -0.0980 c6         1 F3W       0.060000
     24 C22         -1.9200    -2.2380     0.8730 c6         1 F3W      -0.090900
     25 C21         -1.8960    -3.7270     0.5400 c6         1 F3W      -0.074400
     26 C20         -2.2800    -3.9790    -0.9140 c6         1 F3W      -0.077400
     27 C19         -1.3780    -3.1980    -1.8640 c6         1 F3W      -0.074400
     28 C18         -1.4050    -1.7020    -1.5590 c6         1 F3W      -0.090900
     29 H1          -1.6090     4.2670     0.5490 h4         1 F3W       0.036100
     30 H2          -4.2950    -1.1190    -0.6860 ha         1 F3W       0.154000
     31 H3          -6.4970     0.3480    -1.0420 h4         1 F3W       0.166000
     32 H4          -5.9170     2.7490    -0.6480 hn         1 F3W       0.310700
     33 H5           2.4940     1.3530    -0.4480 ha         1 F3W       0.151000
     34 H6           4.9120    -1.5400     1.6040 ha         1 F3W       0.135000
     35 H7           2.9110    -2.4010     2.7250 ha         1 F3W       0.138000
     36 H8           4.7780     1.3950    -0.8430 ha         1 F3W       0.138000
     37 H9           6.5580    -0.7370     0.4790 ha         1 F3W       0.151000
     38 H10          0.7070    -1.4120     2.2890 ha         1 F3W       0.139000
     39 H11         -0.0150    -1.8280     0.0260 h1         1 F3W       0.067700
     40 H12         -1.5730    -2.0700     1.8970 hc         1 F3W       0.056950
     41 H13         -2.9480    -1.8710     0.8310 hc         1 F3W       0.056950
     42 H14         -0.8920    -4.1250     0.7250 hc         1 F3W       0.043700
     43 H15         -2.5690    -4.2610     1.2120 hc         1 F3W       0.043700
     44 H16         -2.2280    -5.0470    -1.1370 hc         1 F3W       0.043200
     45 H17         -3.3210    -3.6790    -1.0730 hc         1 F3W       0.043200
     46 H18         -0.3510    -3.5670    -1.7770 hc         1 F3W       0.043700
     47 H19         -1.6800    -3.3630    -2.9010 hc         1 F3W       0.043700
     48 H20         -2.3980    -1.3050    -1.7800 hc         1 F3W       0.056950
     49 H21         -0.7000    -1.1690    -2.2020 hc         1 F3W       0.056950
@<TRIPOS>BOND
     1     1    18 ar  
     2     1    19 ar  
     3     1    29 1   
     4     2     3 2   
     5     2    21 1   
     6     2    30 1   
     7     3     4 1   
     8     3    31 1   
     9     4    22 1   
    10     4    32 1   
    11     5     6 1   
    12     5     7 1   
    13     5    12 2   
    14     6     8 ar  
    15     6    17 ar  
    16     7    20 1   
    17     7    23 1   
    18     8     9 ar  
    19     8    33 1   
    20     9    10 ar  
    21     9    13 1   
    22    10    11 ar  
    23    10    34 1   
    24    11    17 ar  
    25    11    35 1   
    26    12    18 1   
    27    13    14 2   
    28    13    36 1   
    29    14    15 1   
    30    14    37 1   
    31    15    16 3   
    32    17    38 1   
    33    18    20 ar  
    34    19    22 ar  
    35    20    21 ar  
    36    21    22 ar  
    37    23    24 1   
    38    23    28 1   
    39    23    39 1   
    40    24    25 1   
    41    24    40 1   
    42    24    41 1   
    43    25    26 1   
    44    25    42 1   
    45    25    43 1   
    46    26    27 1   
    47    26    44 1   
    48    26    45 1   
    49    27    28 1   
    50    27    46 1   
    51    27    47 1   
    52    28    48 1   
    53    28    49 1   
@<TRIPOS>SUBSTRUCTURE
     1 F3W         1 TEMP              0 ****  ****    0 ROOT
