@<TRIPOS>MOLECULE
F3W
   49    53     1     0     0
SMALL
No Charge or Current Charge


@<TRIPOS>ATOM
      1 C4          -2.0110     3.3340     0.0600 ca         1 F3W       0.426900
      2 C5          -4.3290    -0.0750    -0.4020 cc         1 F3W      -0.231200
      3 C6          -5.5370     0.5660    -0.6130 cd         1 F3W      -0.171100
      4 N1          -5.3180     1.9610    -0.5580 na         1 F3W      -0.305400
      5 C7           0.2330     0.6210     0.5070 cc         1 F3W       0.436400
      6 C8           1.5370    -0.0100     0.7660 ca         1 F3W      -0.106900
      7 N2          -0.9700    -0.0550     0.2240 na         1 F3W      -0.154600
      8 C9           2.7130     0.5840     0.2590 ca         1 F3W      -0.050000
      9 C10          3.9850     0.0340     0.5260 ca         1 F3W      -0.077800
     10 C11          4.0750    -1.1150     1.3370 ca         1 F3W      -0.077000
     11 C12          2.9160    -1.6890     1.8810 ca         1 F3W      -0.118000
     12 N3           0.0670     1.9570     0.4620 nd         1 F3W      -0.539100
     13 C13          5.1990     0.6850    -0.0530 ce         1 F3W      -0.094200
     14 C14          6.5090     0.3190     0.0570 cf         1 F3W      -0.116700
     15 C15          7.5860     1.0300    -0.5500 ch         1 F3W       0.273700
     16 N4           8.4400     1.6390    -1.0610 n1         1 F3W      -0.453000
     17 C16          1.6560    -1.1350     1.6090 ca         1 F3W      -0.082000
     18 C           -1.2900     2.1210     0.1850 ca         1 F3W      -0.026600
     19 N           -3.3490     3.3610    -0.1900 nb         1 F3W      -0.692000
     20 C1          -1.9360     0.9200     0.0410 ca         1 F3W      -0.002200
     21 C2          -3.3280     0.9460    -0.2130 ca         1 F3W      -0.126800
     22 C3          -3.9750     2.1710    -0.3160 ca         1 F3W       0.356500
     23 C17         -1.1020    -1.4980    -0.1220 c6         1 F3W       0.089300
     24 C22         -1.9280    -2.2850     0.9360 c6         1 F3W      -0.090900
     25 C21         -2.0590    -3.7810     0.5560 c6         1 F3W      -0.074400
     26 C20         -2.5920    -3.9600    -0.8860 c6         1 F3W      -0.077400
     27 C19         -1.6810    -3.2410    -1.9110 c6         1 F3W      -0.074400
     28 C18         -1.5540    -1.7310    -1.5930 c6         1 F3W      -0.090900
     29 H1          -1.5110     4.2970     0.1700 h4         1 F3W       0.036100
     30 H2          -4.2130    -1.1530    -0.4210 ha         1 F3W       0.204000
     31 H3          -6.5210     0.1390    -0.8030 h4         1 F3W       0.216000
     32 H4          -6.0080     2.6920    -0.6760 hn         1 F3W       0.361000
     33 H5           2.6360     1.4740    -0.3620 ha         1 F3W       0.133000
     34 H6           5.0380    -1.5630     1.5660 ha         1 F3W       0.117000
     35 H7           2.9960    -2.5630     2.5250 ha         1 F3W       0.120000
     36 H8           4.9810     1.5770    -0.6440 ha         1 F3W       0.188000
     37 H9           6.7890    -0.5620     0.6310 ha         1 F3W       0.201000
     38 H10          0.7770    -1.5750     2.0700 ha         1 F3W       0.121000
     39 H11         -0.0930    -1.9290    -0.0850 h1         1 F3W       0.067700
     40 H12         -1.4390    -2.2090     1.9160 hc         1 F3W       0.056950
     41 H13         -2.9180    -1.8480     1.0860 hc         1 F3W       0.056950
     42 H14         -1.0790    -4.2710     0.6470 hc         1 F3W       0.043700
     43 H15         -2.7250    -4.2890     1.2670 hc         1 F3W       0.043700
     44 H16         -2.6510    -5.0300    -1.1290 hc         1 F3W       0.043200
     45 H17         -3.6170    -3.5690    -0.9580 hc         1 F3W       0.043200
     46 H18         -0.6840    -3.7050    -1.9060 hc         1 F3W       0.043700
     47 H19         -2.0800    -3.3760    -2.9260 hc         1 F3W       0.043700
     48 H20         -2.5010    -1.2330    -1.8170 hc         1 F3W       0.056950
     49 H21         -0.8190    -1.2800    -2.2730 hc         1 F3W       0.056950
@<TRIPOS>BOND
     1     1    18 ar  
     2     1    19 ar  
     3     1    29 1   
     4     2     3 2   
     5     2    21 1   
     6     2    30 1   
     7     3     4 1   
     8     3    31 1   
     9     4    22 1   
    10     4    32 1   
    11     5     6 1   
    12     5     7 1   
    13     5    12 2   
    14     6     8 ar  
    15     6    17 ar  
    16     7    20 1   
    17     7    23 1   
    18     8     9 ar  
    19     8    33 1   
    20     9    10 ar  
    21     9    13 1   
    22    10    11 ar  
    23    10    34 1   
    24    11    17 ar  
    25    11    35 1   
    26    12    18 1   
    27    13    14 2   
    28    13    36 1   
    29    14    15 1   
    30    14    37 1   
    31    15    16 3   
    32    17    38 1   
    33    18    20 ar  
    34    19    22 ar  
    35    20    21 ar  
    36    21    22 ar  
    37    23    24 1   
    38    23    28 1   
    39    23    39 1   
    40    24    25 1   
    41    24    40 1   
    42    24    41 1   
    43    25    26 1   
    44    25    42 1   
    45    25    43 1   
    46    26    27 1   
    47    26    44 1   
    48    26    45 1   
    49    27    28 1   
    50    27    46 1   
    51    27    47 1   
    52    28    48 1   
    53    28    49 1   
@<TRIPOS>SUBSTRUCTURE
     1 F3W         1 TEMP              0 ****  ****    0 ROOT
