@<TRIPOS>MOLECULE
F3Y
   50    51     1     0     0
SMALL
No Charge or Current Charge


@<TRIPOS>ATOM
      1 C1         -36.5370   -11.2760    10.9500 c3         1 F3Y      -0.090100
      2 C2         -36.7290   -10.4090    12.2090 c3         1 F3Y      -0.078400
      3 C3         -36.7050    -8.8920    11.9060 c3         1 F3Y      -0.074400
      4 C4         -36.9680    -7.9920    13.1370 c3         1 F3Y      -0.080400
      5 C5         -35.8810    -8.0810    14.2280 c3         1 F3Y       0.164600
      6 O6         -36.2160    -7.1310    15.2540 os         1 F3Y      -0.362100
      7 C7         -35.4360    -6.9580    16.3780 ca         1 F3Y       0.176100
      8 C8         -34.2600    -7.7020    16.6070 ca         1 F3Y      -0.234000
      9 C9         -33.5150    -7.4920    17.7790 ca         1 F3Y      -0.037000
     10 C10        -33.9400    -6.5360    18.7150 ca         1 F3Y      -0.210000
     11 C11        -35.0980    -5.7810    18.4810 ca         1 F3Y       0.358000
     12 N12        -35.4960    -4.8510    19.4400 nu         1 F3Y      -0.997000
     13 C13        -36.2880    -3.7060    19.3980 ca         1 F3Y       0.349000
     14 C14        -36.9030    -3.2660    20.5770 ca         1 F3Y      -0.199000
     15 C15        -37.6970    -2.1090    20.5710 ca         1 F3Y      -0.050000
     16 C16        -37.8680    -1.3810    19.3810 ca         1 F3Y      -0.167000
     17 C17        -37.2360    -1.8010    18.1910 ca         1 F3Y       0.013000
     18 N18        -37.3490    -1.1130    16.9520 ns         1 F3Y      -0.148000
     19 C19        -37.9930     0.0620    16.5870 c          1 F3Y       0.602100
     20 O20        -38.6130     0.7830    17.3610 o          1 F3Y      -0.586100
     21 C21        -37.8400     0.4300    15.1040 c3         1 F3Y      -0.156400
     22 C22        -39.1510     0.2030    14.3180 c3         1 F3Y      -0.082100
     23 C23        -36.4460    -2.9650    18.2160 ca         1 F3Y      -0.222000
     24 C24        -35.8500    -6.0060    17.3190 ca         1 F3Y      -0.207000
     25 H1         -36.5590   -12.3410    11.2120 hc         1 F3Y       0.033367
     26 H2         -37.3350   -11.0860    10.2220 hc         1 F3Y       0.033367
     27 H3         -35.5730   -11.0600    10.4730 hc         1 F3Y       0.033367
     28 H4         -37.6850   -10.6710    12.6800 hc         1 F3Y       0.038700
     29 H5         -35.9380   -10.6570    12.9270 hc         1 F3Y       0.038700
     30 H6         -35.7370    -8.6250    11.4630 hc         1 F3Y       0.041700
     31 H7         -37.4670    -8.6720    11.1480 hc         1 F3Y       0.041700
     32 H8         -37.0380    -6.9520    12.7980 hc         1 F3Y       0.054700
     33 H9         -37.9400    -8.2500    13.5740 hc         1 F3Y       0.054700
     34 H10        -35.8500    -9.0980    14.6410 h1         1 F3Y       0.036700
     35 H11        -34.9020    -7.8480    13.7890 h1         1 F3Y       0.036700
     36 H12        -33.9130    -8.4470    15.8970 ha         1 F3Y       0.119000
     37 H13        -32.6100    -8.0690    17.9620 ha         1 F3Y       0.111000
     38 H14        -33.3590    -6.3770    19.6190 ha         1 F3Y       0.114000
     39 H15        -35.1320    -5.0540    20.3710 hn         1 F3Y       0.494000
     40 H16        -36.7760    -3.8250    21.5010 ha         1 F3Y       0.113000
     41 H17        -38.1820    -1.7760    21.4870 ha         1 F3Y       0.115000
     42 H18        -38.4920    -0.4930    19.4100 ha         1 F3Y       0.152000
     43 H19        -36.8700    -1.5730    16.1890 hn         1 F3Y       0.149000
     44 H20        -37.0540    -0.1810    14.6420 hc         1 F3Y       0.059200
     45 H21        -37.5750     1.4910    15.0290 hc         1 F3Y       0.059200
     46 H22        -39.0170     0.4740    13.2630 hc         1 F3Y       0.045033
     47 H23        -39.4560    -0.8500    14.3650 hc         1 F3Y       0.045033
     48 H24        -39.9630     0.8170    14.7270 hc         1 F3Y       0.045033
     49 H25        -35.9360    -3.2810    17.3120 ha         1 F3Y       0.122000
     50 H26        -36.7690    -5.4590    17.1460 ha         1 F3Y       0.136000
@<TRIPOS>BOND
     1     1     2 1   
     2     1    25 1   
     3     1    26 1   
     4     1    27 1   
     5     2     3 1   
     6     2    28 1   
     7     2    29 1   
     8     3     4 1   
     9     3    30 1   
    10     3    31 1   
    11     4     5 1   
    12     4    32 1   
    13     4    33 1   
    14     5     6 1   
    15     5    34 1   
    16     5    35 1   
    17     6     7 1   
    18     7     8 ar  
    19     7    24 ar  
    20     8     9 ar  
    21     8    36 1   
    22     9    10 ar  
    23     9    37 1   
    24    10    11 ar  
    25    10    38 1   
    26    11    12 1   
    27    11    24 ar  
    28    12    13 1   
    29    12    39 1   
    30    13    14 ar  
    31    13    23 ar  
    32    14    15 ar  
    33    14    40 1   
    34    15    16 ar  
    35    15    41 1   
    36    16    17 ar  
    37    16    42 1   
    38    17    18 1   
    39    17    23 ar  
    40    18    19 1   
    41    18    43 1   
    42    19    20 2   
    43    19    21 1   
    44    21    22 1   
    45    21    44 1   
    46    21    45 1   
    47    22    46 1   
    48    22    47 1   
    49    22    48 1   
    50    23    49 1   
    51    24    50 1   
@<TRIPOS>SUBSTRUCTURE
     1 F3Y         1 TEMP              0 ****  ****    0 ROOT
