@<TRIPOS>MOLECULE
F3Y
   50    51     1     0     0
SMALL
abcg2


@<TRIPOS>ATOM
      1 C1         -36.6430   -11.2230    11.1210 c3         1 F3Y      -0.090100
      2 C2         -36.8080   -10.2890    12.3170 c3         1 F3Y      -0.078400
      3 C3         -36.5710    -8.8230    11.9530 c3         1 F3Y      -0.074400
      4 C4         -36.8160    -7.8350    13.0960 c3         1 F3Y      -0.080400
      5 C5         -35.8070    -7.9660    14.2200 c3         1 F3Y       0.164600
      6 O6         -36.1140    -6.9650    15.1990 os         1 F3Y      -0.362100
      7 C7         -35.3590    -6.9030    16.3290 ca         1 F3Y       0.176100
      8 C8         -34.2500    -7.7120    16.5750 ca         1 F3Y      -0.234000
      9 C9         -33.5710    -7.5540    17.7840 ca         1 F3Y      -0.037000
     10 C10        -33.9610    -6.6130    18.7180 ca         1 F3Y      -0.210000
     11 C11        -35.0770    -5.7950    18.4650 ca         1 F3Y       0.358000
     12 N12        -35.4610    -4.8920    19.4520 nu         1 F3Y      -0.997000
     13 C13        -36.2640    -3.7610    19.3580 ca         1 F3Y       0.349000
     14 C14        -36.8820    -3.2860    20.5260 ca         1 F3Y      -0.199000
     15 C15        -37.6570    -2.1400    20.4790 ca         1 F3Y      -0.050000
     16 C16        -37.8570    -1.4370    19.2930 ca         1 F3Y      -0.167000
     17 C17        -37.2350    -1.9020    18.1320 ca         1 F3Y       0.013000
     18 N18        -37.3470    -1.2710    16.8800 ns         1 F3Y      -0.148000
     19 C19        -38.0440    -0.1570    16.5210 c          1 F3Y       0.602100
     20 O20        -38.7330     0.5010    17.2970 o          1 F3Y      -0.586100
     21 C21        -37.9160     0.2280    15.0590 c3         1 F3Y      -0.156400
     22 C22        -39.2820     0.3060    14.3740 c3         1 F3Y      -0.082100
     23 C23        -36.4380    -3.0500    18.1710 ca         1 F3Y      -0.222000
     24 C24        -35.7750    -5.9570    17.2690 ca         1 F3Y      -0.207000
     25 H1         -36.8220   -12.2640    11.3990 hc         1 F3Y       0.033367
     26 H2         -37.3440   -10.9640    10.3230 hc         1 F3Y       0.033367
     27 H3         -35.6320   -11.1560    10.7090 hc         1 F3Y       0.033367
     28 H4         -37.8180   -10.3940    12.7290 hc         1 F3Y       0.038700
     29 H5         -36.1190   -10.5940    13.1100 hc         1 F3Y       0.038700
     30 H6         -35.5480    -8.7030    11.5800 hc         1 F3Y       0.041700
     31 H7         -37.2320    -8.5580    11.1220 hc         1 F3Y       0.041700
     32 H8         -36.7690    -6.8130    12.7120 hc         1 F3Y       0.054700
     33 H9         -37.8220    -7.9800    13.5020 hc         1 F3Y       0.054700
     34 H10        -35.8520    -8.9520    14.6900 h1         1 F3Y       0.036700
     35 H11        -34.7910    -7.8120    13.8440 h1         1 F3Y       0.036700
     36 H12        -33.9160    -8.4460    15.8580 ha         1 F3Y       0.119000
     37 H13        -32.7100    -8.1790    17.9890 ha         1 F3Y       0.111000
     38 H14        -33.4160    -6.4970    19.6470 ha         1 F3Y       0.114000
     39 H15        -35.1310    -5.1070    20.3790 hn         1 F3Y       0.494000
     40 H16        -36.7480    -3.8250    21.4560 ha         1 F3Y       0.113000
     41 H17        -38.1300    -1.7850    21.3860 ha         1 F3Y       0.115000
     42 H18        -38.4740    -0.5560    19.2650 ha         1 F3Y       0.152000
     43 H19        -36.8370    -1.7210    16.1340 hn         1 F3Y       0.149000
     44 H20        -37.2640    -0.4670    14.5290 hc         1 F3Y       0.059200
     45 H21        -37.4330     1.2090    15.0340 hc         1 F3Y       0.059200
     46 H22        -39.1670     0.6350    13.3410 hc         1 F3Y       0.045033
     47 H23        -39.7710    -0.6700    14.3700 hc         1 F3Y       0.045033
     48 H24        -39.9320     1.0140    14.8890 hc         1 F3Y       0.045033
     49 H25        -35.9350    -3.3670    17.2680 ha         1 F3Y       0.122000
     50 H26        -36.6630    -5.3830    17.0530 ha         1 F3Y       0.136000
@<TRIPOS>BOND
     1     1     2 1   
     2     1    25 1   
     3     1    26 1   
     4     1    27 1   
     5     2     3 1   
     6     2    28 1   
     7     2    29 1   
     8     3     4 1   
     9     3    30 1   
    10     3    31 1   
    11     4     5 1   
    12     4    32 1   
    13     4    33 1   
    14     5     6 1   
    15     5    34 1   
    16     5    35 1   
    17     6     7 1   
    18     7     8 ar  
    19     7    24 ar  
    20     8     9 ar  
    21     8    36 1   
    22     9    10 ar  
    23     9    37 1   
    24    10    11 ar  
    25    10    38 1   
    26    11    12 1   
    27    11    24 ar  
    28    12    13 1   
    29    12    39 1   
    30    13    14 ar  
    31    13    23 ar  
    32    14    15 ar  
    33    14    40 1   
    34    15    16 ar  
    35    15    41 1   
    36    16    17 ar  
    37    16    42 1   
    38    17    18 1   
    39    17    23 ar  
    40    18    19 1   
    41    18    43 1   
    42    19    20 2   
    43    19    21 1   
    44    21    22 1   
    45    21    44 1   
    46    21    45 1   
    47    22    46 1   
    48    22    47 1   
    49    22    48 1   
    50    23    49 1   
    51    24    50 1   
@<TRIPOS>SUBSTRUCTURE
     1 F3Y         1 TEMP              0 ****  ****    0 ROOT
