@<TRIPOS>MOLECULE
F3Z
   77    83     1     0     0
SMALL
No Charge or Current Charge


@<TRIPOS>ATOM
      1 O1           4.2320     0.5140     0.5580 o          1 F3Z      -0.565100
      2 C20          4.0460     1.4600    -0.1990 c          1 F3Z       0.613100
      3 N5           5.0300     2.0670    -0.9710 ns         1 F3Z      -0.153000
      4 C21          6.4170     1.7930    -1.1370 ca         1 F3Z      -0.058000
      5 C26          7.0510     0.6460    -0.5910 ca         1 F3Z      -0.058000
      6 C25          8.4300     0.4880    -0.8110 ca         1 F3Z      -0.184900
      7 C27          9.3760    -0.5490    -0.4490 cc         1 F3Z       0.389500
      8 C28          9.0750    -1.7130     0.3960 ca         1 F3Z      -0.053900
      9 C32          9.7250    -2.9480     0.1890 ca         1 F3Z      -0.145000
     10 C31          9.4580    -4.0290     1.0450 ca         1 F3Z       0.328400
     11 N6           8.6120    -3.9440     2.0970 nb         1 F3Z      -0.663000
     12 C30          8.0120    -2.7530     2.3240 ca         1 F3Z       0.328400
     13 C29          8.2220    -1.6220     1.5160 ca         1 F3Z      -0.145000
     14 N7          10.5870    -0.3310    -0.9910 nd         1 F3Z      -0.504100
     15 N8          10.4240     0.8820    -1.6740 na         1 F3Z      -0.047400
     16 C24          9.1370     1.3660    -1.5710 ca         1 F3Z      -0.067200
     17 C23          8.5520     2.5010    -2.1400 ca         1 F3Z      -0.102000
     18 C22          7.1760     2.7120    -1.9060 ca         1 F3Z      -0.117000
     19 C19          2.6990     2.1910    -0.4510 c5         1 F3Z      -0.153700
     20 C            2.0980     2.7380     0.8890 c5         1 F3Z      -0.075400
     21 C18          1.6400     1.1670    -0.9610 c5         1 F3Z       0.172800
     22 N            0.7580     0.9780     0.2140 n3         1 F3Z      -0.681600
     23 C1           0.6110     2.3410     0.7660 c5         1 F3Z       0.156800
     24 C2          -0.5130     0.2330    -0.0590 c3         1 F3Z       0.093800
     25 C3          -1.4300    -0.1860     1.1410 c          1 F3Z       0.610100
     26 O           -1.1560     0.1110     2.3010 o          1 F3Z      -0.575100
     27 N1          -2.5810    -0.9670     0.8650 n          1 F3Z      -0.422800
     28 C7          -3.5310    -1.3910     1.9300 c6         1 F3Z       0.090500
     29 C6          -4.8900    -0.6440     1.8100 c6         1 F3Z       0.186300
     30 N2          -5.4720    -0.7550     0.4350 nh         1 F3Z      -0.796400
     31 C5          -4.5070    -0.4130    -0.6580 c6         1 F3Z       0.186300
     32 C4          -3.1550    -1.1640    -0.4970 c6         1 F3Z       0.090500
     33 C8          -6.8620    -0.6100     0.2160 ca         1 F3Z       0.335000
     34 C13         -7.6600     0.1740     1.0670 ca         1 F3Z      -0.195000
     35 C12         -9.0390     0.3070     0.8370 ca         1 F3Z      -0.025000
     36 C11         -9.6730    -0.3440    -0.2570 cp         1 F3Z      -0.202500
     37 C10         -8.8490    -1.1350    -1.1040 ca         1 F3Z      -0.025000
     38 C9          -7.4700    -1.2620    -0.8670 ca         1 F3Z      -0.195000
     39 C14        -11.1550    -0.2030    -0.5070 cp         1 F3Z       0.209500
     40 N4         -11.6810    -0.8540    -1.5710 nb         1 F3Z      -0.186500
     41 C17        -13.0040    -0.7290    -1.7960 ca         1 F3Z       0.116900
     42 C16        -13.8150     0.0490    -0.9560 ca         1 F3Z      -0.232000
     43 C15        -13.1930     0.6920     0.1250 ca         1 F3Z       0.116900
     44 N3         -11.8700     0.5650     0.3470 nb         1 F3Z      -0.186500
     45 H1           4.7010     2.8510    -1.5200 hn         1 F3Z       0.147000
     46 H2           6.4980    -0.1050    -0.0370 ha         1 F3Z       0.152000
     47 H3          10.4220    -3.0790    -0.6340 ha         1 F3Z       0.134000
     48 H4           9.9410    -4.9920     0.8880 h4         1 F3Z       0.019100
     49 H5           7.3520    -2.7000     3.1890 h4         1 F3Z       0.019100
     50 H6           7.7380    -0.6880     1.7820 ha         1 F3Z       0.134000
     51 H57         11.1910     1.3120    -2.1890 hn         1 F3Z       0.379000
     52 H8           9.1310     3.1920    -2.7490 ha         1 F3Z       0.122000
     53 H9           6.6950     3.5880    -2.3360 ha         1 F3Z       0.110000
     54 H10          2.8250     2.9970    -1.1840 hc         1 F3Z       0.061700
     55 H12          2.5470     2.2640     1.7700 hc         1 F3Z       0.057700
     56 H11          2.2320     3.8200     1.0010 hc         1 F3Z       0.057700
     57 H14          1.0790     1.5890    -1.8070 h1         1 F3Z       0.047700
     58 H13          2.0880     0.2220    -1.3010 h1         1 F3Z       0.047700
     59 H16          0.1020     2.3590     1.7390 h1         1 F3Z       0.046700
     60 H17          0.0680     3.0040     0.0770 h1         1 F3Z       0.046700
     61 H19         -1.1370     0.8270    -0.7390 h1         1 F3Z       0.046700
     62 H18         -0.2700    -0.6990    -0.5860 h1         1 F3Z       0.046700
     63 H21         -3.7100    -2.4710     1.8340 h1         1 F3Z       0.063200
     64 H20         -3.1110    -1.2230     2.9310 h1         1 F3Z       0.063200
     65 H23         -5.5820    -1.0660     2.5540 h1         1 F3Z       0.049200
     66 H22         -4.7360     0.4150     2.0660 h1         1 F3Z       0.049200
     67 H25         -4.9260    -0.6600    -1.6440 h1         1 F3Z       0.049200
     68 H24         -4.3130     0.6700    -0.6520 h1         1 F3Z       0.049200
     69 H27         -2.4670    -0.8430    -1.2890 h1         1 F3Z       0.063200
     70 H26         -3.3310    -2.2390    -0.6500 h1         1 F3Z       0.063200
     71 H28         -7.2150     0.6970     1.9070 ha         1 F3Z       0.113000
     72 H29         -9.6150     0.9280     1.5200 ha         1 F3Z       0.131500
     73 H30         -9.2740    -1.6620    -1.9560 ha         1 F3Z       0.131500
     74 H31         -6.8730    -1.8840    -1.5270 ha         1 F3Z       0.113000
     75 H32        -13.4130    -1.2580    -2.6550 h4         1 F3Z       0.022600
     76 H33        -14.8820     0.1510    -1.1370 ha         1 F3Z       0.135000
     77 H34        -13.7560     1.3140     0.8210 h4         1 F3Z       0.022600
@<TRIPOS>BOND
     1     1     2 2   
     2     2     3 1   
     3     2    19 1   
     4     3     4 1   
     5     3    45 1   
     6     4     5 ar  
     7     4    18 ar  
     8     5     6 ar  
     9     5    46 1   
    10     6     7 1   
    11     6    16 ar  
    12     7     8 1   
    13     7    14 2   
    14     8     9 ar  
    15     8    13 ar  
    16     9    10 ar  
    17     9    47 1   
    18    10    11 ar  
    19    10    48 1   
    20    11    12 ar  
    21    12    13 ar  
    22    12    49 1   
    23    13    50 1   
    24    14    15 1   
    25    15    16 1   
    26    15    51 1   
    27    16    17 ar  
    28    17    18 ar  
    29    17    52 1   
    30    18    53 1   
    31    19    20 1   
    32    19    21 1   
    33    19    54 1   
    34    20    23 1   
    35    20    55 1   
    36    20    56 1   
    37    21    22 1   
    38    21    57 1   
    39    21    58 1   
    40    22    23 1   
    41    22    24 1   
    42    23    59 1   
    43    23    60 1   
    44    24    25 1   
    45    24    61 1   
    46    24    62 1   
    47    25    26 2   
    48    25    27 1   
    49    27    28 1   
    50    27    32 1   
    51    28    29 1   
    52    28    63 1   
    53    28    64 1   
    54    29    30 1   
    55    29    65 1   
    56    29    66 1   
    57    30    31 1   
    58    30    33 1   
    59    31    32 1   
    60    31    67 1   
    61    31    68 1   
    62    32    69 1   
    63    32    70 1   
    64    33    34 ar  
    65    33    38 ar  
    66    34    35 ar  
    67    34    71 1   
    68    35    36 ar  
    69    35    72 1   
    70    36    37 ar  
    71    36    39 1   
    72    37    38 ar  
    73    37    73 1   
    74    38    74 1   
    75    39    40 ar  
    76    39    44 ar  
    77    40    41 ar  
    78    41    42 ar  
    79    41    75 1   
    80    42    43 ar  
    81    42    76 1   
    82    43    44 ar  
    83    43    77 1   
@<TRIPOS>SUBSTRUCTURE
     1 F3Z         1 TEMP              0 ****  ****    0 ROOT
