@<TRIPOS>MOLECULE
F3Z
   77    83     1     0     0
SMALL
abcg2


@<TRIPOS>ATOM
      1 O1           4.0600    -0.1410    -0.5050 o          1 F3Z      -0.565100
      2 C20          3.9050     0.8900    -1.1330 c          1 F3Z       0.613100
      3 N5           4.9080     1.7720    -1.3870 ns         1 F3Z      -0.153000
      4 C21          6.2290     1.7450    -0.9190 ca         1 F3Z      -0.058000
      5 C26          6.8680     0.5930    -0.5050 ca         1 F3Z      -0.058000
      6 C25          8.1950     0.6980    -0.0610 ca         1 F3Z      -0.184900
      7 C27          9.1860    -0.2140     0.4180 cc         1 F3Z       0.389500
      8 C28          9.0940    -1.6530     0.6490 ca         1 F3Z      -0.053900
      9 C32         10.2290    -2.4630     0.6020 ca         1 F3Z      -0.145000
     10 C31         10.0970    -3.8210     0.8370 ca         1 F3Z       0.328400
     11 N6           8.9390    -4.4170     1.1050 nb         1 F3Z      -0.663000
     12 C30          7.8610    -3.6450     1.1540 ca         1 F3Z       0.328400
     13 C29          7.8820    -2.2760     0.9390 ca         1 F3Z      -0.145000
     14 N7          10.3130     0.4260     0.6520 nd         1 F3Z      -0.504100
     15 N8          10.1120     1.7000     0.3580 na         1 F3Z      -0.047400
     16 C24          8.8520     1.9360    -0.0790 ca         1 F3Z      -0.067200
     17 C23          8.2150     3.1040    -0.5070 ca         1 F3Z      -0.102000
     18 C22          6.9100     2.9890    -0.9110 ca         1 F3Z      -0.117000
     19 C19          2.5680     1.3470    -1.6790 c5         1 F3Z      -0.153700
     20 C            1.9750     2.4680    -0.7800 c5         1 F3Z      -0.075400
     21 C18          1.4920     0.2590    -1.6730 c5         1 F3Z       0.172800
     22 N            0.6590     0.5660    -0.5220 n3         1 F3Z      -0.681600
     23 C1           0.5430     2.0130    -0.5360 c5         1 F3Z       0.156800
     24 C2          -0.5900    -0.1420    -0.5530 c3         1 F3Z       0.093800
     25 C3          -1.3220    -0.1000     0.7830 c          1 F3Z       0.610100
     26 O           -0.8270     0.4310     1.7650 o          1 F3Z      -0.575100
     27 N1          -2.5390    -0.6850     0.8160 n          1 F3Z      -0.422800
     28 C7          -3.3680    -0.6610     2.0010 c6         1 F3Z       0.090500
     29 C6          -4.7130    -0.0140     1.7100 c6         1 F3Z       0.186300
     30 N2          -5.3700    -0.6360     0.5740 nh         1 F3Z      -0.796400
     31 C5          -4.5190    -0.7190    -0.6040 c6         1 F3Z       0.186300
     32 C4          -3.1900    -1.3760    -0.2760 c6         1 F3Z       0.090500
     33 C8          -6.7300    -0.4560     0.4090 ca         1 F3Z       0.335000
     34 C13         -7.5070     0.2540     1.3430 ca         1 F3Z      -0.195000
     35 C12         -8.8740     0.3830     1.1910 ca         1 F3Z      -0.025000
     36 C11         -9.5460    -0.1660     0.1000 cp         1 F3Z      -0.202500
     37 C10         -8.7780    -0.8590    -0.8380 ca         1 F3Z      -0.025000
     38 C9          -7.4140    -1.0020    -0.6940 ca         1 F3Z      -0.195000
     39 C14        -10.9990    -0.0150    -0.0600 cp         1 F3Z       0.209500
     40 N4         -11.5600    -0.5310    -1.1530 nb         1 F3Z      -0.186500
     41 C17        -12.8690    -0.3910    -1.2920 ca         1 F3Z       0.116900
     42 C16        -13.6490     0.2640    -0.3530 ca         1 F3Z      -0.232000
     43 C15        -12.9730     0.7650     0.7470 ca         1 F3Z       0.116900
     44 N3         -11.6650     0.6300     0.8980 nb         1 F3Z      -0.186500
     45 H1           4.6480     2.6070    -1.8890 hn         1 F3Z       0.147000
     46 H2           6.3670    -0.3590    -0.5440 ha         1 F3Z       0.152000
     47 H3          11.2010    -2.0480     0.3760 ha         1 F3Z       0.134000
     48 H4          10.9730    -4.4600     0.8010 h4         1 F3Z       0.019100
     49 H5           6.9210    -4.1360     1.3820 h4         1 F3Z       0.019100
     50 H6           6.9630    -1.7140     1.0280 ha         1 F3Z       0.134000
     51 H57         10.8540     2.3670     0.4960 hn         1 F3Z       0.379000
     52 H8           8.7200     4.0610    -0.5170 ha         1 F3Z       0.122000
     53 H9           6.3830     3.8770    -1.2370 ha         1 F3Z       0.110000
     54 H10          2.7140     1.7190    -2.6950 hc         1 F3Z       0.061700
     55 H12          2.5130     2.5380     0.1680 hc         1 F3Z       0.057700
     56 H11          2.0250     3.4470    -1.2540 hc         1 F3Z       0.057700
     57 H14          0.9230     0.3210    -2.6140 h1         1 F3Z       0.047700
     58 H13          1.8960    -0.7520    -1.6050 h1         1 F3Z       0.047700
     59 H16          0.1380     2.3970     0.3990 h1         1 F3Z       0.046700
     60 H17         -0.1110     2.3570    -1.3550 h1         1 F3Z       0.046700
     61 H19         -1.2520     0.2370    -1.3510 h1         1 F3Z       0.046700
     62 H18         -0.3920    -1.1900    -0.7980 h1         1 F3Z       0.046700
     63 H21         -3.5230    -1.6860     2.3530 h1         1 F3Z       0.063200
     64 H20         -2.8710    -0.1070     2.7930 h1         1 F3Z       0.063200
     65 H23         -5.3230    -0.1420     2.6020 h1         1 F3Z       0.049200
     66 H22         -4.5770     1.0650     1.5510 h1         1 F3Z       0.049200
     67 H25         -4.9930    -1.3140    -1.3790 h1         1 F3Z       0.049200
     68 H24         -4.3380     0.2820    -1.0200 h1         1 F3Z       0.049200
     69 H27         -2.5740    -1.3910    -1.1700 h1         1 F3Z       0.063200
     70 H26         -3.3590    -2.4180     0.0140 h1         1 F3Z       0.063200
     71 H28         -7.0540     0.7290     2.1990 ha         1 F3Z       0.113000
     72 H29         -9.4280     0.9390     1.9360 ha         1 F3Z       0.131500
     73 H30         -9.2580    -1.3030    -1.7000 ha         1 F3Z       0.131500
     74 H31         -6.8870    -1.5660    -1.4500 ha         1 F3Z       0.113000
     75 H32        -13.3130    -0.8150    -2.1850 h4         1 F3Z       0.022600
     76 H33        -14.7160     0.3770    -0.4720 ha         1 F3Z       0.135000
     77 H34        -13.5020     1.2920     1.5330 h4         1 F3Z       0.022600
@<TRIPOS>BOND
     1     1     2 2   
     2     2     3 1   
     3     2    19 1   
     4     3     4 1   
     5     3    45 1   
     6     4     5 ar  
     7     4    18 ar  
     8     5     6 ar  
     9     5    46 1   
    10     6     7 1   
    11     6    16 ar  
    12     7     8 1   
    13     7    14 2   
    14     8     9 ar  
    15     8    13 ar  
    16     9    10 ar  
    17     9    47 1   
    18    10    11 ar  
    19    10    48 1   
    20    11    12 ar  
    21    12    13 ar  
    22    12    49 1   
    23    13    50 1   
    24    14    15 1   
    25    15    16 1   
    26    15    51 1   
    27    16    17 ar  
    28    17    18 ar  
    29    17    52 1   
    30    18    53 1   
    31    19    20 1   
    32    19    21 1   
    33    19    54 1   
    34    20    23 1   
    35    20    55 1   
    36    20    56 1   
    37    21    22 1   
    38    21    57 1   
    39    21    58 1   
    40    22    23 1   
    41    22    24 1   
    42    23    59 1   
    43    23    60 1   
    44    24    25 1   
    45    24    61 1   
    46    24    62 1   
    47    25    26 2   
    48    25    27 1   
    49    27    28 1   
    50    27    32 1   
    51    28    29 1   
    52    28    63 1   
    53    28    64 1   
    54    29    30 1   
    55    29    65 1   
    56    29    66 1   
    57    30    31 1   
    58    30    33 1   
    59    31    32 1   
    60    31    67 1   
    61    31    68 1   
    62    32    69 1   
    63    32    70 1   
    64    33    34 ar  
    65    33    38 ar  
    66    34    35 ar  
    67    34    71 1   
    68    35    36 ar  
    69    35    72 1   
    70    36    37 ar  
    71    36    39 1   
    72    37    38 ar  
    73    37    73 1   
    74    38    74 1   
    75    39    40 ar  
    76    39    44 ar  
    77    40    41 ar  
    78    41    42 ar  
    79    41    75 1   
    80    42    43 ar  
    81    42    76 1   
    82    43    44 ar  
    83    43    77 1   
@<TRIPOS>SUBSTRUCTURE
     1 F3Z         1 TEMP              0 ****  ****    0 ROOT
