@<TRIPOS>MOLECULE
F40
   27    29     1     0     0
SMALL
abcg2


@<TRIPOS>ATOM
      1 O           -1.6720    -2.7400    -0.4600 o          1 F40      -0.538000
      2 C           -1.2860    -1.6000    -0.2780 c          1 F40       0.578600
      3 N            0.0590    -1.3000    -0.2460 ns         1 F40      -0.428400
      4 C1           0.5700    -0.0510    -0.0410 cc         1 F40       0.561500
      5 C8           2.0380     0.0880    -0.0170 ca         1 F40      -0.152900
      6 C9           2.6040     1.3170    -0.3560 ca         1 F40      -0.073000
      7 C10          3.9790     1.4800    -0.3450 ca         1 F40      -0.116500
      8 C11          4.8050     0.4220     0.0150 ca         1 F40      -0.087000
      9 C12          4.2480    -0.8000     0.3640 ca         1 F40      -0.116500
     10 C13          2.8720    -0.9690     0.3460 ca         1 F40      -0.073000
     11 N1          -0.1720     0.9870     0.1240 nd         1 F40      -0.632100
     12 C2          -1.5350     0.8210     0.0930 ca         1 F40       0.191400
     13 C3          -2.1380    -0.4340    -0.0910 ca         1 F40      -0.205600
     14 C7          -2.3540     1.9470     0.2590 ca         1 F40      -0.106000
     15 C6          -3.7250     1.8140     0.2380 ca         1 F40      -0.074000
     16 C5          -4.3200     0.5610     0.0530 ca         1 F40      -0.134000
     17 C4          -3.5300    -0.5560    -0.1110 ca         1 F40      -0.039000
     18 H            0.6910    -2.0700    -0.4270 hn         1 F40       0.331500
     19 H9           1.9620     2.1410    -0.6370 ha         1 F40       0.126000
     20 H13          2.4660    -1.9270     0.6460 ha         1 F40       0.126000
     21 H10          4.4070     2.4340    -0.6220 ha         1 F40       0.119500
     22 H11          5.8790     0.5510     0.0250 ha         1 F40       0.117000
     23 H12          4.8830    -1.6260     0.6560 ha         1 F40       0.119500
     24 H7          -1.8890     2.9130     0.4040 ha         1 F40       0.132000
     25 H4          -3.9800    -1.5290    -0.2580 ha         1 F40       0.135000
     26 H6          -4.3490     2.6890     0.3680 ha         1 F40       0.117000
     27 H5          -5.3980     0.4710     0.0400 ha         1 F40       0.120000
@<TRIPOS>BOND
     1     1     2 2   
     2     2     3 1   
     3     2    13 1   
     4     3     4 1   
     5     3    18 1   
     6     4     5 1   
     7     4    11 2   
     8     5     6 ar  
     9     5    10 ar  
    10     6     7 ar  
    11     6    19 1   
    12     7     8 ar  
    13     7    21 1   
    14     8     9 ar  
    15     8    22 1   
    16     9    10 ar  
    17     9    23 1   
    18    10    20 1   
    19    11    12 1   
    20    12    13 ar  
    21    12    14 ar  
    22    13    17 ar  
    23    14    15 ar  
    24    14    24 1   
    25    15    16 ar  
    26    15    26 1   
    27    16    17 ar  
    28    16    27 1   
    29    17    25 1   
@<TRIPOS>SUBSTRUCTURE
     1 F40         1 TEMP              0 ****  ****    0 ROOT
