@<TRIPOS>MOLECULE
F40
   27    29     1     0     0
SMALL
No Charge or Current Charge


@<TRIPOS>ATOM
      1 O           -1.6260    -2.7210    -0.5060 o          1 F40      -0.538000
      2 C           -1.2430    -1.5780    -0.3100 c          1 F40       0.578600
      3 N            0.0690    -1.2620    -0.2680 ns         1 F40      -0.428400
      4 C1           0.5710    -0.0060    -0.0500 cc         1 F40       0.561500
      5 C8           2.0410     0.1060    -0.0540 ca         1 F40      -0.152900
      6 C9           2.6640     1.3280    -0.4080 ca         1 F40      -0.073000
      7 C10          4.0640     1.4570    -0.3800 ca         1 F40      -0.116500
      8 C11          4.8640     0.3770     0.0190 ca         1 F40      -0.087000
      9 C12          4.2630    -0.8320     0.4000 ca         1 F40      -0.116500
     10 C13          2.8630    -0.9670     0.3730 ca         1 F40      -0.073000
     11 N1          -0.1860     1.0810     0.1220 nd         1 F40      -0.632100
     12 C2          -1.5710     0.8470     0.0960 ca         1 F40       0.191400
     13 C3          -2.1460    -0.4220    -0.1060 ca         1 F40      -0.205600
     14 C7          -2.4210     1.9530     0.2840 ca         1 F40      -0.106000
     15 C6          -3.8180     1.8020     0.2730 ca         1 F40      -0.074000
     16 C5          -4.3820     0.5330     0.0730 ca         1 F40      -0.134000
     17 C4          -3.5480    -0.5800    -0.1180 ca         1 F40      -0.039000
     18 H            0.7110    -2.0220    -0.4300 hn         1 F40       0.331500
     19 H9           2.0650     2.1810    -0.7200 ha         1 F40       0.126000
     20 H13          2.4290    -1.9090     0.7010 ha         1 F40       0.126000
     21 H10          4.5270     2.3990    -0.6670 ha         1 F40       0.119500
     22 H11          5.9470     0.4790     0.0420 ha         1 F40       0.117000
     23 H12          4.8810    -1.6660     0.7260 ha         1 F40       0.119500
     24 H7          -1.9910     2.9390     0.4400 ha         1 F40       0.132000
     25 H4          -3.9930    -1.5620    -0.2750 ha         1 F40       0.135000
     26 H6          -4.4600     2.6680     0.4210 ha         1 F40       0.117000
     27 H5          -5.4630     0.4120     0.0640 ha         1 F40       0.120000
@<TRIPOS>BOND
     1     1     2 2   
     2     2     3 1   
     3     2    13 1   
     4     3     4 1   
     5     3    18 1   
     6     4     5 1   
     7     4    11 2   
     8     5     6 ar  
     9     5    10 ar  
    10     6     7 ar  
    11     6    19 1   
    12     7     8 ar  
    13     7    21 1   
    14     8     9 ar  
    15     8    22 1   
    16     9    10 ar  
    17     9    23 1   
    18    10    20 1   
    19    11    12 1   
    20    12    13 ar  
    21    12    14 ar  
    22    13    17 ar  
    23    14    15 ar  
    24    14    24 1   
    25    15    16 ar  
    26    15    26 1   
    27    16    17 ar  
    28    16    27 1   
    29    17    25 1   
@<TRIPOS>SUBSTRUCTURE
     1 F40         1 TEMP              0 ****  ****    0 ROOT
