@<TRIPOS>MOLECULE
F41
   37    39     1     0     0
SMALL
No Charge or Current Charge


@<TRIPOS>ATOM
      1 C1          -5.9730     0.8760    -0.8080 c6         1 F41      -0.075400
      2 C2          -5.9540     0.0370     0.4900 c6         1 F41      -0.074400
      3 C3          -4.7000    -0.8690     0.5480 c6         1 F41       0.169800
      4 N4          -3.4440    -0.0790     0.4120 n3         1 F41      -0.698600
      5 C5          -3.4280     0.7040    -0.8580 c6         1 F41       0.169800
      6 C6          -4.6460     1.6550    -0.9570 c6         1 F41      -0.074400
      7 C7          -2.2180    -0.9260     0.5910 c3         1 F41       0.091800
      8 C8          -0.8280    -0.2220     0.6810 c          1 F41       0.601100
      9 O9          -0.6840     0.9090     1.1390 o          1 F41      -0.549100
     10 N10          0.2190    -1.0010     0.2000 ns         1 F41      -0.154000
     11 C11          1.6160    -0.7620     0.0840 ca         1 F41      -0.012000
     12 C12          2.2340     0.4640     0.4400 ca         1 F41      -0.117000
     13 C13          3.6210     0.5810     0.2800 ca         1 F41       0.078100
     14 C14          4.3800    -0.4430    -0.2070 ca         1 F41       0.022100
     15 C15          3.8100    -1.6660    -0.5750 ca         1 F41      -0.066000
     16 C16          2.4150    -1.8180    -0.4230 ca         1 F41      -0.178000
     17 O17          4.3600     1.6830     0.5650 os         1 F41      -0.340100
     18 C18          5.7320     1.2420     0.2650 c5         1 F41       0.372600
     19 O19          5.6960    -0.1200    -0.2930 os         1 F41      -0.344100
     20 H1          -6.1150     0.2160    -1.6750 hc         1 F41       0.038700
     21 H1A         -6.8230     1.5730    -0.7970 hc         1 F41       0.038700
     22 H2          -5.9640     0.7030     1.3640 hc         1 F41       0.050450
     23 H2A         -6.8610    -0.5790     0.5530 hc         1 F41       0.050450
     24 H3          -4.7050    -1.4140     1.5040 h1         1 F41       0.029950
     25 H3A         -4.7630    -1.6210    -0.2530 h1         1 F41       0.029950
     26 H5          -2.5110     1.3070    -0.9290 h1         1 F41       0.029950
     27 H5A         -3.4340     0.0230    -1.7220 h1         1 F41       0.029950
     28 H6          -4.6260     2.1860    -1.9180 hc         1 F41       0.050450
     29 H6A         -4.5750     2.4220    -0.1730 hc         1 F41       0.050450
     30 H7          -2.3100    -1.5170     1.5120 h1         1 F41       0.045200
     31 H7A         -2.1600    -1.6490    -0.2330 h1         1 F41       0.045200
     32 HN10        -0.0660    -1.9130    -0.1340 hn         1 F41       0.148000
     33 H12          1.6780     1.3110     0.8260 ha         1 F41       0.168000
     34 H15          4.4260    -2.4730    -0.9650 ha         1 F41       0.133000
     35 H16          1.9520    -2.7620    -0.7030 ha         1 F41       0.114000
     36 H18          6.1870     1.9250    -0.4620 h2         1 F41       0.064200
     37 H18A         6.3170     1.2350     1.1920 h2         1 F41       0.064200
@<TRIPOS>BOND
     1     1     2 1   
     2     1     6 1   
     3     1    20 1   
     4     1    21 1   
     5     2     3 1   
     6     2    22 1   
     7     2    23 1   
     8     3     4 1   
     9     3    24 1   
    10     3    25 1   
    11     4     5 1   
    12     4     7 1   
    13     5     6 1   
    14     5    26 1   
    15     5    27 1   
    16     6    28 1   
    17     6    29 1   
    18     7     8 1   
    19     7    30 1   
    20     7    31 1   
    21     8     9 2   
    22     8    10 1   
    23    10    11 1   
    24    10    32 1   
    25    11    12 ar  
    26    11    16 ar  
    27    12    13 ar  
    28    12    33 1   
    29    13    14 ar  
    30    13    17 1   
    31    14    15 ar  
    32    14    19 1   
    33    15    16 ar  
    34    15    34 1   
    35    16    35 1   
    36    17    18 1   
    37    18    19 1   
    38    18    36 1   
    39    18    37 1   
@<TRIPOS>SUBSTRUCTURE
     1 F41         1 TEMP              0 ****  ****    0 ROOT
