@<TRIPOS>MOLECULE
F41
   37    39     1     0     0
SMALL
abcg2


@<TRIPOS>ATOM
      1 C1          -5.8410     0.9570    -0.6190 c6         1 F41      -0.075400
      2 C2          -5.7020     0.2280     0.7110 c6         1 F41      -0.074400
      3 C3          -4.5650    -0.7810     0.6610 c6         1 F41       0.169800
      4 N4          -3.3140    -0.1370     0.2950 n3         1 F41      -0.698600
      5 C5          -3.4070     0.5020    -1.0080 c6         1 F41       0.169800
      6 C6          -4.5020     1.5570    -1.0260 c6         1 F41      -0.074400
      7 C7          -2.2060    -1.0490     0.3580 c3         1 F41       0.091800
      8 C8          -0.8710    -0.3220     0.4520 c          1 F41       0.601100
      9 O9          -0.7530     0.7660     0.9820 o          1 F41      -0.549100
     10 N10          0.1570    -1.0340    -0.0730 ns         1 F41      -0.154000
     11 C11          1.5300    -0.7570    -0.0640 ca         1 F41      -0.012000
     12 C12          2.0570     0.4920     0.3100 ca         1 F41      -0.117000
     13 C13          3.4230     0.6200     0.2550 ca         1 F41       0.078100
     14 C14          4.2650    -0.4030    -0.1430 ca         1 F41       0.022100
     15 C15          3.7650    -1.6250    -0.5140 ca         1 F41      -0.066000
     16 C16          2.3780    -1.7870    -0.4660 ca         1 F41      -0.178000
     17 O17          4.1590     1.7230     0.5330 os         1 F41      -0.340100
     18 C18          5.5180     1.3050     0.5110 c5         1 F41       0.372600
     19 O19          5.5510     0.0340    -0.1230 os         1 F41      -0.344100
     20 H1          -6.1730     0.2510    -1.3870 hc         1 F41       0.038700
     21 H1A         -6.6070     1.7320    -0.5550 hc         1 F41       0.038700
     22 H2          -5.5040     0.9510     1.5080 hc         1 F41       0.050450
     23 H2A         -6.6290    -0.2870     0.9700 hc         1 F41       0.050450
     24 H3          -4.4410    -1.2510     1.6390 h1         1 F41       0.029950
     25 H3A         -4.8280    -1.5870    -0.0470 h1         1 F41       0.029950
     26 H5          -2.4490     0.9680    -1.2490 h1         1 F41       0.029950
     27 H5A         -3.6000    -0.2460    -1.7980 h1         1 F41       0.029950
     28 H6          -4.5590     1.9980    -2.0240 hc         1 F41       0.050450
     29 H6A         -4.2310     2.3620    -0.3360 hc         1 F41       0.050450
     30 H7          -2.2900    -1.6540     1.2680 h1         1 F41       0.045200
     31 H7A         -2.1920    -1.7660    -0.4810 h1         1 F41       0.045200
     32 HN10        -0.0900    -1.9190    -0.4880 hn         1 F41       0.148000
     33 H12          1.4320     1.3150     0.6160 ha         1 F41       0.168000
     34 H15          4.4050    -2.4360    -0.8340 ha         1 F41       0.133000
     35 H16          1.9580    -2.7430    -0.7510 ha         1 F41       0.114000
     36 H18          6.1140     2.0180    -0.0590 h2         1 F41       0.064200
     37 H18A         5.8970     1.2220     1.5360 h2         1 F41       0.064200
@<TRIPOS>BOND
     1     1     2 1   
     2     1     6 1   
     3     1    20 1   
     4     1    21 1   
     5     2     3 1   
     6     2    22 1   
     7     2    23 1   
     8     3     4 1   
     9     3    24 1   
    10     3    25 1   
    11     4     5 1   
    12     4     7 1   
    13     5     6 1   
    14     5    26 1   
    15     5    27 1   
    16     6    28 1   
    17     6    29 1   
    18     7     8 1   
    19     7    30 1   
    20     7    31 1   
    21     8     9 2   
    22     8    10 1   
    23    10    11 1   
    24    10    32 1   
    25    11    12 ar  
    26    11    16 ar  
    27    12    13 ar  
    28    12    33 1   
    29    13    14 ar  
    30    13    17 1   
    31    14    15 ar  
    32    14    19 1   
    33    15    16 ar  
    34    15    34 1   
    35    16    35 1   
    36    17    18 1   
    37    18    19 1   
    38    18    36 1   
    39    18    37 1   
@<TRIPOS>SUBSTRUCTURE
     1 F41         1 TEMP              0 ****  ****    0 ROOT
