@<TRIPOS>MOLECULE
F44
   29    30     1     0     0
SMALL
bcc


@<TRIPOS>ATOM
      1 C1          -3.2810     0.3430     1.0500 ca         1 F44      -0.241300
      2 C3          -4.6940    -1.0720    -0.2530 ca         1 F44      -0.251800
      3 C13          4.7080    -1.0570     0.2940 ca         1 F44      -0.251800
      4 C15          3.2870     0.3250    -1.0350 ca         1 F44      -0.241300
      5 C14          4.4010    -0.4930    -0.9350 ca         1 F44      -0.090000
      6 C2          -4.3930    -0.4790     0.9640 ca         1 F44      -0.090000
      7 C8           0.0050     0.5440     0.0060 c3         1 F44      -0.069400
      8 C9           1.2710     1.4020     0.0330 c3         1 F44      -0.126700
      9 C10          2.5100     0.5570     0.0980 ca         1 F44       0.418600
     10 C12          3.8760    -0.7700     1.3660 ca         1 F44       0.405700
     11 C6          -2.4990     0.5490    -0.0850 ca         1 F44       0.418600
     12 C4          -3.8580    -0.8090    -1.3270 ca         1 F44       0.405700
     13 N11          2.8080     0.0130     1.2770 nb         1 F44      -0.675000
     14 N5          -2.7910    -0.0230    -1.2530 nb         1 F44      -0.675000
     15 H1          -3.0170     0.8220     1.9830 ha         1 F44       0.141000
     16 H2          -5.5520    -1.7190    -0.3710 ha         1 F44       0.140500
     17 H4           3.0180     0.7810    -1.9790 ha         1 F44       0.141000
     18 H5           5.0200    -0.6840    -1.8020 ha         1 F44       0.136000
     19 H6          -5.0160    -0.6520     1.8320 ha         1 F44       0.136000
     20 H7          -0.0130    -0.1020     0.8880 hc         1 F44       0.055700
     21 H8           0.0260    -0.1150    -0.8660 hc         1 F44       0.055700
     22 H11          1.3000     2.0380    -0.8550 hc         1 F44       0.053200
     23 H12          1.2410     2.0640     0.9020 hc         1 F44       0.053200
     24 H13          4.0850    -1.1900     2.3440 h4         1 F44       0.017100
     25 H14         -4.0610    -1.2530    -2.2960 h4         1 F44       0.017100
     26 C7          -1.2630     1.3980    -0.0350 c3         1 F44      -0.126700
     27 H3           5.5670    -1.7000     0.4230 ha         1 F44       0.140500
     28 H9          -1.2940     2.0490     0.8420 hc         1 F44       0.053200
     29 H10         -1.2340     2.0460    -0.9150 hc         1 F44       0.053200
@<TRIPOS>BOND
     1     1     6 ar  
     2     1    11 ar  
     3     1    15 1   
     4     2     6 ar  
     5     2    12 ar  
     6     2    16 1   
     7     3     5 ar  
     8     3    10 ar  
     9     3    27 1   
    10     4     5 ar  
    11     4     9 ar  
    12     4    17 1   
    13     5    18 1   
    14     6    19 1   
    15     7     8 1   
    16     7    20 1   
    17     7    21 1   
    18     7    26 1   
    19     8     9 1   
    20     8    22 1   
    21     8    23 1   
    22     9    13 ar  
    23    10    13 ar  
    24    10    24 1   
    25    11    14 ar  
    26    11    26 1   
    27    12    14 ar  
    28    12    25 1   
    29    26    28 1   
    30    26    29 1   
@<TRIPOS>SUBSTRUCTURE
     1 F44         1 TEMP              0 ****  ****    0 ROOT
