@<TRIPOS>MOLECULE
F44
   29    30     1     0     0
SMALL
No Charge or Current Charge


@<TRIPOS>ATOM
      1 C1          -3.1050     0.0160     1.0150 ca         1 F44      -0.158000
      2 C3          -4.8080    -0.9880    -0.3560 ca         1 F44      -0.168500
      3 C13          4.8210    -0.9700     0.3990 ca         1 F44      -0.168500
      4 C15          3.1160     0.0010    -0.9930 ca         1 F44      -0.158000
      5 C14          4.2740    -0.7840    -0.8800 ca         1 F44      -0.072000
      6 C2          -4.2610    -0.7740     0.9190 ca         1 F44      -0.072000
      7 C8           0.0050     0.5640     0.0050 c3         1 F44      -0.069400
      8 C9           1.2910     1.4180     0.0820 c3         1 F44      -0.126700
      9 C10          2.5510     0.5680     0.1660 ca         1 F44       0.353300
     10 C12          4.1960    -0.3700     1.5060 ca         1 F44       0.340400
     11 C6          -2.5410     0.5590    -0.1550 ca         1 F44       0.353300
     12 C4          -4.1840    -0.4100    -1.4760 ca         1 F44       0.340400
     13 N11          3.0790     0.3870     1.3990 nb         1 F44      -0.675000
     14 N5          -3.0690     0.3510    -1.3840 nb         1 F44      -0.675000
     15 H1          -2.6470     0.2050     1.9820 ha         1 F44       0.123000
     16 H2          -5.7030    -1.5920    -0.4840 ha         1 F44       0.122500
     17 H4           2.6570     0.1700    -1.9630 ha         1 F44       0.123000
     18 H5           4.7330    -1.2350    -1.7580 ha         1 F44       0.118000
     19 H6          -4.7200    -1.2080     1.8060 ha         1 F44       0.118000
     20 H7          -0.0510    -0.0810     0.8910 hc         1 F44       0.055700
     21 H8           0.0620    -0.0990    -0.8670 hc         1 F44       0.055700
     22 H11          1.3460     2.0660    -0.8010 hc         1 F44       0.053200
     23 H12          1.2260     2.0890     0.9480 hc         1 F44       0.053200
     24 H13          4.6010    -0.5000     2.5090 h4         1 F44       0.017100
     25 H14         -4.5890    -0.5620    -2.4760 h4         1 F44       0.017100
     26 C7          -1.2830     1.4140    -0.0900 c3         1 F44      -0.126700
     27 H3           5.7170    -1.5690     0.5390 ha         1 F44       0.122500
     28 H9          -1.3390     2.0790     0.7800 hc         1 F44       0.053200
     29 H10         -1.2200     2.0670    -0.9690 hc         1 F44       0.053200
@<TRIPOS>BOND
     1     1     6 ar  
     2     1    11 ar  
     3     1    15 1   
     4     2     6 ar  
     5     2    12 ar  
     6     2    16 1   
     7     3     5 ar  
     8     3    10 ar  
     9     3    27 1   
    10     4     5 ar  
    11     4     9 ar  
    12     4    17 1   
    13     5    18 1   
    14     6    19 1   
    15     7     8 1   
    16     7    20 1   
    17     7    21 1   
    18     7    26 1   
    19     8     9 1   
    20     8    22 1   
    21     8    23 1   
    22     9    13 ar  
    23    10    13 ar  
    24    10    24 1   
    25    11    14 ar  
    26    11    26 1   
    27    12    14 ar  
    28    12    25 1   
    29    26    28 1   
    30    26    29 1   
@<TRIPOS>SUBSTRUCTURE
     1 F44         1 TEMP              0 ****  ****    0 ROOT
