@<TRIPOS>MOLECULE
F45
   36    38     1     0     0
SMALL
No Charge or Current Charge


@<TRIPOS>ATOM
      1 F            3.8290     3.3630    -0.5020 f          1 F45      -0.184000
      2 C13          3.4130     2.0850    -0.3440 ca         1 F45       0.093000
      3 C12          2.3810     1.5890    -1.1540 ca         1 F45      -0.131000
      4 C11          1.9420     0.2620    -1.0000 ca         1 F45      -0.067000
      5 C14          4.0200     1.2550     0.6200 ca         1 F45       0.099100
      6 O2           5.0350     1.7260     1.4100 oh         1 F45      -0.522100
      7 C15          3.5800    -0.0710     0.7720 ca         1 F45      -0.080000
      8 C10          2.5280    -0.5790    -0.0240 ca         1 F45      -0.127600
      9 C9           2.0880    -2.0210     0.1530 c          1 F45       0.495200
     10 O1           2.9250    -2.8710     0.4510 o          1 F45      -0.507100
     11 C8           0.6150    -2.3980    -0.0450 ca         1 F45       0.282500
     12 C7           0.2760    -3.7460    -0.2950 ca         1 F45      -0.112000
     13 C6          -1.0700    -4.1060    -0.4610 ca         1 F45      -0.083000
     14 C5          -2.0440    -3.1020    -0.3600 ca         1 F45      -0.134000
     15 N           -0.3520    -1.4410     0.0630 nb         1 F45      -0.666000
     16 C4          -1.6580    -1.7660    -0.0870 cp         1 F45       0.416500
     17 C3          -2.6510    -0.6370     0.0350 cp         1 F45      -0.155500
     18 C2          -4.0180    -0.8820     0.3460 ca         1 F45      -0.085000
     19 C1          -4.9420     0.1710     0.4590 ca         1 F45      -0.132000
     20 C16         -2.2550     0.7200    -0.1490 ca         1 F45      -0.121000
     21 C17         -3.1800     1.7740    -0.0370 ca         1 F45       0.036100
     22 O3          -2.7770     3.0720    -0.2210 oh         1 F45      -0.559100
     23 C           -4.5260     1.4940     0.2670 ca         1 F45       0.138100
     24 O           -5.4170     2.5200     0.3750 oh         1 F45      -0.531100
     25 H1           1.9260     2.2300    -1.9050 ha         1 F45       0.133000
     26 H2           1.1560    -0.1110    -1.6530 ha         1 F45       0.132000
     27 H3           5.2050     2.6610     1.1640 ho         1 F45       0.478000
     28 H4           4.0550    -0.7040     1.5180 ha         1 F45       0.149000
     29 H5           1.0520    -4.5040    -0.3670 ha         1 F45       0.144000
     30 H6          -1.3510    -5.1370    -0.6670 ha         1 F45       0.125000
     31 H7          -3.0880    -3.3580    -0.5050 ha         1 F45       0.128000
     32 H8          -4.3720    -1.8950     0.5200 ha         1 F45       0.116000
     33 H9          -5.9810    -0.0400     0.7000 ha         1 F45       0.133000
     34 H10         -1.2190     0.9510    -0.3880 ha         1 F45       0.137000
     35 H11         -1.8140     3.0860    -0.4170 ho         1 F45       0.478000
     36 H12         -4.9000     3.3400     0.2030 ho         1 F45       0.485000
@<TRIPOS>BOND
     1     1     2 1   
     2     2     3 ar  
     3     2     5 ar  
     4     3     4 ar  
     5     3    25 1   
     6     4     8 ar  
     7     4    26 1   
     8     5     6 1   
     9     5     7 ar  
    10     6    27 1   
    11     7     8 ar  
    12     7    28 1   
    13     8     9 1   
    14     9    10 2   
    15     9    11 1   
    16    11    12 ar  
    17    11    15 ar  
    18    12    13 ar  
    19    12    29 1   
    20    13    14 ar  
    21    13    30 1   
    22    14    16 ar  
    23    14    31 1   
    24    15    16 ar  
    25    16    17 1   
    26    17    18 ar  
    27    17    20 ar  
    28    18    19 ar  
    29    18    32 1   
    30    19    23 ar  
    31    19    33 1   
    32    20    21 ar  
    33    20    34 1   
    34    21    22 1   
    35    21    23 ar  
    36    22    35 1   
    37    23    24 1   
    38    24    36 1   
@<TRIPOS>SUBSTRUCTURE
     1 F45         1 TEMP              0 ****  ****    0 ROOT
