@<TRIPOS>MOLECULE
F45
   36    38     1     0     0
SMALL
abcg2


@<TRIPOS>ATOM
      1 F            3.7520     3.2660    -0.6870 f          1 F45      -0.184000
      2 C13          3.3060     2.0170    -0.4770 ca         1 F45       0.093000
      3 C12          2.2780     1.5200    -1.2470 ca         1 F45      -0.131000
      4 C11          1.8130     0.2360    -1.0100 ca         1 F45      -0.067000
      5 C14          3.9160     1.2690     0.5280 ca         1 F45       0.099100
      6 O2           4.9170     1.7400     1.2900 oh         1 F45      -0.522100
      7 C15          3.4590    -0.0240     0.7360 ca         1 F45      -0.080000
      8 C10          2.4030    -0.5400    -0.0140 ca         1 F45      -0.127600
      9 C9           2.0070    -1.9510     0.2330 c          1 F45       0.495200
     10 O1           2.8140    -2.7620     0.6380 o          1 F45      -0.507100
     11 C8           0.5900    -2.3750    -0.0020 ca         1 F45       0.282500
     12 C7           0.3020    -3.7110    -0.2510 ca         1 F45      -0.112000
     13 C6          -1.0290    -4.0550    -0.4340 ca         1 F45      -0.083000
     14 C5          -2.0030    -3.0770    -0.3430 ca         1 F45      -0.134000
     15 N           -0.3440    -1.4400     0.0900 nb         1 F45      -0.666000
     16 C4          -1.6240    -1.7600    -0.0660 cp         1 F45       0.416500
     17 C3          -2.5990    -0.6570     0.0430 cp         1 F45      -0.155500
     18 C2          -3.9680    -0.8840     0.1530 ca         1 F45      -0.085000
     19 C1          -4.8560     0.1780     0.2410 ca         1 F45      -0.132000
     20 C16         -2.1420     0.6650     0.0330 ca         1 F45      -0.121000
     21 C17         -3.0220     1.7250     0.1160 ca         1 F45       0.036100
     22 O3          -2.6460     3.0240     0.1020 oh         1 F45      -0.559100
     23 C           -4.4010     1.4860     0.2210 ca         1 F45       0.138100
     24 O           -5.2900     2.4940     0.3000 oh         1 F45      -0.531100
     25 H1           1.8440     2.1340    -2.0240 ha         1 F45       0.133000
     26 H2           1.0100    -0.1510    -1.6190 ha         1 F45       0.132000
     27 H3           5.1430     2.6470     1.0540 ho         1 F45       0.478000
     28 H4           3.9280    -0.6240     1.5060 ha         1 F45       0.149000
     29 H5           1.0860    -4.4510    -0.3160 ha         1 F45       0.144000
     30 H6          -1.3060    -5.0770    -0.6510 ha         1 F45       0.125000
     31 H7          -3.0390    -3.3400    -0.5030 ha         1 F45       0.128000
     32 H8          -4.3670    -1.8890     0.1870 ha         1 F45       0.116000
     33 H9          -5.9190    -0.0080     0.3320 ha         1 F45       0.133000
     34 H10         -1.0770     0.8530    -0.0470 ha         1 F45       0.137000
     35 H11         -1.6870     3.1070     0.0700 ho         1 F45       0.478000
     36 H12         -4.8390     3.3470     0.2940 ho         1 F45       0.485000
@<TRIPOS>BOND
     1     1     2 1   
     2     2     3 ar  
     3     2     5 ar  
     4     3     4 ar  
     5     3    25 1   
     6     4     8 ar  
     7     4    26 1   
     8     5     6 1   
     9     5     7 ar  
    10     6    27 1   
    11     7     8 ar  
    12     7    28 1   
    13     8     9 1   
    14     9    10 2   
    15     9    11 1   
    16    11    12 ar  
    17    11    15 ar  
    18    12    13 ar  
    19    12    29 1   
    20    13    14 ar  
    21    13    30 1   
    22    14    16 ar  
    23    14    31 1   
    24    15    16 ar  
    25    16    17 1   
    26    17    18 ar  
    27    17    20 ar  
    28    18    19 ar  
    29    18    32 1   
    30    19    23 ar  
    31    19    33 1   
    32    20    21 ar  
    33    20    34 1   
    34    21    22 1   
    35    21    23 ar  
    36    22    35 1   
    37    23    24 1   
    38    24    36 1   
@<TRIPOS>SUBSTRUCTURE
     1 F45         1 TEMP              0 ****  ****    0 ROOT
