@<TRIPOS>MOLECULE
F46
   72    77     1     0     0
SMALL
No Charge or Current Charge


@<TRIPOS>ATOM
      1 OAA         -7.8730    -0.1220     1.8650 o          1 F46      -0.579100
      2 CAD        -12.7840    -0.1040     0.5560 ca         1 F46      -0.084000
      3 CAE        -12.1310    -0.0960     1.7970 ca         1 F46      -0.118000
      4 CAF        -12.0310    -0.1200    -0.6280 ca         1 F46      -0.118000
      5 CAG        -10.7270    -0.1040     1.8560 ca         1 F46      -0.069500
      6 CAH        -10.6260    -0.1280    -0.5760 ca         1 F46      -0.069500
      7 CAI         -3.6460    -0.1710    -1.5470 ca         1 F46      -0.149000
      8 CAJ         -1.2030     1.3830    -0.1210 ca         1 F46      -0.224000
      9 CAK         -4.6590    -0.2550    -2.5170 ca         1 F46      -0.093000
     10 CAL          5.7530    -0.7370     2.1080 ca         1 F46      -0.191000
     11 CAM          4.6440    -0.5340     2.9450 ca         1 F46      -0.060000
     12 CAN          0.1330     1.8060    -0.0870 ca         1 F46       0.008000
     13 CAO         -5.3270    -0.0640     0.2040 ca         1 F46      -0.166000
     14 CAP         -0.8040    -0.0380     1.7820 ca         1 F46      -0.250000
     15 CAQ          4.7260     0.6850     0.4250 ca         1 F46      -0.099000
     16 CAR         10.8770     1.7120    -2.8920 c6         1 F46       0.153100
     17 CAS         10.7840     2.4390    -0.5980 c6         1 F46       0.153100
     18 CAT          8.0200    -1.0650     0.3150 c3         1 F46       0.164600
     19 CAU         10.3730     0.2940    -2.4900 c6         1 F46       0.125800
     20 CAV         10.2740     1.0380    -0.1460 c6         1 F46       0.125800
     21 CAW          9.0300    -1.0180    -0.8640 c3         1 F46       0.169800
     22 CAX          2.3990     0.5310     3.4430 c3         1 F46       0.215900
     23 NAY         -7.7470    -0.1470    -0.4340 ns         1 F46      -0.140000
     24 OBA         11.5940     2.3210    -1.7910 os         1 F46      -0.450000
     25 OBC          1.2530    -0.1240     2.8990 os         1 F46      -0.344100
     26 CBD         -8.4340    -0.1280     0.7740 c          1 F46       0.625700
     27 CBE          2.4720     1.7550     0.7710 c          1 F46       0.605300
     28 CBF         -3.9770    -0.0610    -0.1860 ca         1 F46       0.320000
     29 CBG         -1.6680     0.4420     0.8000 ca         1 F46       0.392000
     30 CBH         -6.0050    -0.2390    -2.1230 ca         1 F46       0.082000
     31 CBI          5.7990    -0.1190     0.8400 ca         1 F46       0.144100
     32 CBJ         -9.9500    -0.1200     0.6720 ca         1 F46      -0.157600
     33 CBK          3.5710     0.2760     2.5230 ca         1 F46      -0.134300
     34 CBL         -6.3590    -0.1500    -0.7600 ca         1 F46      -0.019000
     35 CBM          0.5320     0.3830     1.8420 ca         1 F46       0.233100
     36 CBN          1.0320     1.3030     0.8820 ca         1 F46      -0.290600
     37 CBO          3.5980     0.8770     1.2520 ca         1 F46      -0.103600
     38 NBP          9.5430     0.3310    -1.2460 n3         1 F46      -0.701600
     39 HAD        -13.8710    -0.0980     0.5110 ha         1 F46       0.117000
     40 HAE        -12.7120    -0.0830     2.7160 ha         1 F46       0.119500
     41 HAF        -12.5370    -0.1270    -1.5910 ha         1 F46       0.119500
     42 HAG        -10.2430    -0.0970     2.8310 ha         1 F46       0.125000
     43 HAH        -10.0820    -0.1410    -1.5170 ha         1 F46       0.125000
     44 HAI         -2.6060    -0.2090    -1.8580 ha         1 F46       0.135000
     45 HAJ         -1.8740     1.8010    -0.8650 ha         1 F46       0.128000
     46 HAK         -4.4030    -0.3380    -3.5700 ha         1 F46       0.135000
     47 HAL          6.5650    -1.3660     2.4610 ha         1 F46       0.117000
     48 HAM          4.6220    -1.0030     3.9270 ha         1 F46       0.113000
     49 HAN          0.4700     2.5200    -0.8380 ha         1 F46       0.133000
     50 HAO         -5.5520     0.0150     1.2600 ha         1 F46       0.155000
     51 HAP         -1.1680    -0.7450     2.5200 ha         1 F46       0.129000
     52 HAQ          4.7700     1.1570    -0.5530 ha         1 F46       0.148000
     53 HARA        10.0240     2.3500    -3.1680 h1         1 F46       0.052950
     54 HAS          9.9290     3.1010    -0.8030 h1         1 F46       0.052950
     55 HASA        11.3840     2.8950     0.2020 h1         1 F46       0.052950
     56 HAT          7.7290    -2.1090     0.4880 h1         1 F46       0.034700
     57 HATA         8.4980    -0.6890     1.2280 h1         1 F46       0.034700
     58 HAU          9.7900    -0.1220    -3.3250 h1         1 F46       0.039700
     59 HAUA        11.2450    -0.3610    -2.3470 h1         1 F46       0.039700
     60 HAV         11.1350     0.4400     0.1870 h1         1 F46       0.039700
     61 HAVA         9.6210     1.1780     0.7270 h1         1 F46       0.039700
     62 HAW          9.8750    -1.6710    -0.6060 h1         1 F46       0.043200
     63 HAWA         8.5360    -1.4770    -1.7320 h1         1 F46       0.043200
     64 HAX          2.2220     1.6090     3.5580 h1         1 F46       0.063700
     65 HAXA         2.6220     0.1270     4.4390 h1         1 F46       0.063700
     66 HNAY        -8.3470    -0.1610    -1.2470 hn         1 F46       0.169000
     67 FAC         -6.9690    -0.3210    -3.0690 f          1 F46      -0.188000
     68 NAZ         -2.9900     0.0100     0.7990 nu         1 F46      -0.985000
     69 OAB          2.7350     2.8330     0.2500 o          1 F46      -0.535100
     70 OBB          6.8640    -0.2720    -0.0230 os         1 F46      -0.323100
     71 HAR         11.5450     1.6400    -3.7620 h1         1 F46       0.052950
     72 HNAZ        -3.2970    -0.3300     1.7100 hn         1 F46       0.502000
@<TRIPOS>BOND
     1     1    26 2   
     2     2     3 ar  
     3     2     4 ar  
     4     2    39 1   
     5     3     5 ar  
     6     3    40 1   
     7     4     6 ar  
     8     4    41 1   
     9     5    32 ar  
    10     5    42 1   
    11     6    32 ar  
    12     6    43 1   
    13     7     9 ar  
    14     7    28 ar  
    15     7    44 1   
    16     8    12 ar  
    17     8    29 ar  
    18     8    45 1   
    19     9    30 ar  
    20     9    46 1   
    21    10    11 ar  
    22    10    31 ar  
    23    10    47 1   
    24    11    33 ar  
    25    11    48 1   
    26    12    36 ar  
    27    12    49 1   
    28    13    28 ar  
    29    13    34 ar  
    30    13    50 1   
    31    14    29 ar  
    32    14    35 ar  
    33    14    51 1   
    34    15    31 ar  
    35    15    37 ar  
    36    15    52 1   
    37    16    19 1   
    38    16    24 1   
    39    16    53 1   
    40    16    71 1   
    41    17    20 1   
    42    17    24 1   
    43    17    54 1   
    44    17    55 1   
    45    18    21 1   
    46    18    56 1   
    47    18    57 1   
    48    18    70 1   
    49    19    38 1   
    50    19    58 1   
    51    19    59 1   
    52    20    38 1   
    53    20    60 1   
    54    20    61 1   
    55    21    38 1   
    56    21    62 1   
    57    21    63 1   
    58    22    25 1   
    59    22    33 1   
    60    22    64 1   
    61    22    65 1   
    62    23    26 1   
    63    23    34 1   
    64    23    66 1   
    65    25    35 1   
    66    26    32 1   
    67    27    36 1   
    68    27    37 1   
    69    27    69 2   
    70    28    68 1   
    71    29    68 1   
    72    30    34 ar  
    73    30    67 1   
    74    31    70 1   
    75    33    37 ar  
    76    35    36 ar  
    77    68    72 1   
@<TRIPOS>SUBSTRUCTURE
     1 F46         1 TEMP              0 ****  ****    0 ROOT
