@<TRIPOS>MOLECULE
F46
   72    77     1     0     0
SMALL
bcc


@<TRIPOS>ATOM
      1 OAA         -7.5630    -0.1500     1.7770 o          1 F46      -0.579100
      2 CAD        -12.4840     0.2380     1.0410 ca         1 F46      -0.102000
      3 CAE        -11.6770     0.6290     2.1020 ca         1 F46      -0.136000
      4 CAF        -11.9060    -0.2320    -0.1300 ca         1 F46      -0.136000
      5 CAG        -10.2980     0.5490     1.9940 ca         1 F46      -0.087500
      6 CAH        -10.5250    -0.3010    -0.2450 ca         1 F46      -0.087500
      7 CAI         -3.7320    -0.2660    -1.8460 ca         1 F46      -0.167000
      8 CAJ         -1.2040     0.9340    -0.4450 ca         1 F46      -0.242000
      9 CAK         -4.7910    -0.0720    -2.7200 ca         1 F46      -0.111000
     10 CAL          5.7870    -0.7160     2.1370 ca         1 F46      -0.209000
     11 CAM          4.6140    -0.5730     2.8660 ca         1 F46      -0.078000
     12 CAN          0.1010     1.3470    -0.3650 ca         1 F46      -0.010000
     13 CAO         -5.2740    -0.1480     0.0110 ca         1 F46      -0.184000
     14 CAP         -0.8040    -0.5050     1.4370 ca         1 F46      -0.268000
     15 CAQ          4.7350     0.4200     0.2960 ca         1 F46      -0.117000
     16 CAR         10.6500     1.8330    -2.6610 c6         1 F46       0.129900
     17 CAS         10.3080     2.7400    -0.5540 c6         1 F46       0.129900
     18 CAT          8.1130    -0.8840     0.5580 c3         1 F46       0.141400
     19 CAU         10.3850     0.4380    -2.1310 c6         1 F46       0.125800
     20 CAV         10.0330     1.3660     0.0250 c6         1 F46       0.125800
     21 CAW          9.1810    -0.8370    -0.5120 c3         1 F46       0.169800
     22 CAX          2.2400     0.1890     3.1200 c3         1 F46       0.192700
     23 NAY         -7.6820     0.1370    -0.4760 ns         1 F46      -0.466100
     24 OBA         11.1790     2.6770    -1.6610 os         1 F46      -0.403600
     25 OBC          1.1970    -0.5870     2.5480 os         1 F46      -0.320900
     26 CBD         -8.2210     0.0100     0.7650 c          1 F46       0.692700
     27 CBE          2.4260     1.2720     0.3850 c          1 F46       0.605300
     28 CBF         -3.9730    -0.2880    -0.4760 ca         1 F46       0.181600
     29 CBG         -1.6770    -0.0390     0.4550 ca         1 F46       0.253600
     30 CBH         -6.0660     0.0590    -2.2260 ca         1 F46       0.046900
     31 CBI          5.8490    -0.2210     0.8360 ca         1 F46       0.144100
     32 CBJ         -9.7110     0.0950     0.8150 ca         1 F46      -0.157600
     33 CBK          3.4980     0.0480     2.3320 ca         1 F46      -0.134300
     34 CBL         -6.3480     0.0100    -0.8600 ca         1 F46       0.073600
     35 CBM          0.5100    -0.0690     1.5160 ca         1 F46       0.233100
     36 CBN          1.0230     0.8510     0.5770 ca         1 F46      -0.290600
     37 CBO          3.5620     0.5440     1.0280 ca         1 F46      -0.103600
     38 NBP          9.4810     0.4930    -0.9950 n3         1 F46      -0.701600
     39 HAD        -13.5610     0.2940     1.1290 ha         1 F46       0.135000
     40 HAE        -12.1230     0.9960     3.0170 ha         1 F46       0.137500
     41 HAF        -12.5280    -0.5530    -0.9550 ha         1 F46       0.137500
     42 HAG         -9.6760     0.8500     2.8260 ha         1 F46       0.143000
     43 HAH        -10.1030    -0.7010    -1.1580 ha         1 F46       0.143000
     44 HAI         -2.7390    -0.4200    -2.2430 ha         1 F46       0.153000
     45 HAJ         -1.8500     1.3710    -1.1920 ha         1 F46       0.146000
     46 HAK         -4.6260    -0.0490    -3.7890 ha         1 F46       0.153000
     47 HAL          6.6280    -1.2160     2.5950 ha         1 F46       0.135000
     48 HAM          4.5780    -0.9560     3.8790 ha         1 F46       0.131000
     49 HAN          0.4460     2.0820    -1.0790 ha         1 F46       0.151000
     50 HAO         -5.4360    -0.1610     1.0770 ha         1 F46       0.173000
     51 HAP         -1.1570    -1.2100     2.1810 ha         1 F46       0.147000
     52 HAQ          4.7930     0.8110    -0.7130 ha         1 F46       0.166000
     53 HARA         9.7170     2.2530    -3.0620 h1         1 F46       0.052950
     54 HAS          9.3560     3.2100    -0.8410 h1         1 F46       0.052950
     55 HASA        10.7810     3.3730     0.1990 h1         1 F46       0.052950
     56 HAT          7.9500    -1.9320     0.8340 h1         1 F46       0.034700
     57 HATA         8.4280    -0.3580     1.4650 h1         1 F46       0.034700
     58 HAU          9.9330    -0.1610    -2.9260 h1         1 F46       0.039700
     59 HAUA        11.3420    -0.0440    -1.8670 h1         1 F46       0.039700
     60 HAV         10.9620     0.9530     0.4570 h1         1 F46       0.039700
     61 HAVA         9.3230     1.4840     0.8470 h1         1 F46       0.039700
     62 HAW         10.0690    -1.3410    -0.0950 h1         1 F46       0.043200
     63 HAWA         8.8540    -1.4420    -1.3620 h1         1 F46       0.043200
     64 HAX          1.9250     1.2350     3.2000 h1         1 F46       0.063700
     65 HAXA         2.3770    -0.1930     4.1310 h1         1 F46       0.063700
     66 HNAY        -8.3220     0.3590    -1.2230 hn         1 F46       0.335500
     67 FAC         -7.0950     0.2300    -3.0790 f          1 F46      -0.152900
     68 NAZ         -2.9600    -0.5090     0.4580 nu         1 F46      -0.653000
     69 OAB          2.6960     2.1720    -0.3940 o          1 F46      -0.535100
     70 OBB          6.9270    -0.3080     0.0400 os         1 F46      -0.299900
     71 HAR         11.3770     1.7930    -3.4740 h1         1 F46       0.052950
     72 HNAZ        -3.2360    -1.0170     1.2840 hn         1 F46       0.446800
@<TRIPOS>BOND
     1     1    26 2   
     2     2     3 ar  
     3     2     4 ar  
     4     2    39 1   
     5     3     5 ar  
     6     3    40 1   
     7     4     6 ar  
     8     4    41 1   
     9     5    32 ar  
    10     5    42 1   
    11     6    32 ar  
    12     6    43 1   
    13     7     9 ar  
    14     7    28 ar  
    15     7    44 1   
    16     8    12 ar  
    17     8    29 ar  
    18     8    45 1   
    19     9    30 ar  
    20     9    46 1   
    21    10    11 ar  
    22    10    31 ar  
    23    10    47 1   
    24    11    33 ar  
    25    11    48 1   
    26    12    36 ar  
    27    12    49 1   
    28    13    28 ar  
    29    13    34 ar  
    30    13    50 1   
    31    14    29 ar  
    32    14    35 ar  
    33    14    51 1   
    34    15    31 ar  
    35    15    37 ar  
    36    15    52 1   
    37    16    19 1   
    38    16    24 1   
    39    16    53 1   
    40    16    71 1   
    41    17    20 1   
    42    17    24 1   
    43    17    54 1   
    44    17    55 1   
    45    18    21 1   
    46    18    56 1   
    47    18    57 1   
    48    18    70 1   
    49    19    38 1   
    50    19    58 1   
    51    19    59 1   
    52    20    38 1   
    53    20    60 1   
    54    20    61 1   
    55    21    38 1   
    56    21    62 1   
    57    21    63 1   
    58    22    25 1   
    59    22    33 1   
    60    22    64 1   
    61    22    65 1   
    62    23    26 1   
    63    23    34 1   
    64    23    66 1   
    65    25    35 1   
    66    26    32 1   
    67    27    36 1   
    68    27    37 1   
    69    27    69 2   
    70    28    68 1   
    71    29    68 1   
    72    30    34 ar  
    73    30    67 1   
    74    31    70 1   
    75    33    37 ar  
    76    35    36 ar  
    77    68    72 1   
@<TRIPOS>SUBSTRUCTURE
     1 F46         1 TEMP              0 ****  ****    0 ROOT
