@<TRIPOS>MOLECULE
F47
   36    39     1     0     0
SMALL
No Charge or Current Charge


@<TRIPOS>ATOM
      1 F24         -5.8180     2.6550    -0.0240 f          1 F47      -0.169000
      2 N5           0.4880    -1.7960    -0.2940 na         1 F47      -0.073500
      3 N7           1.4510    -3.6440     0.3610 nc         1 F47      -0.031000
      4 C18         -2.7000    -0.1430     0.1870 ca         1 F47      -0.176500
      5 C23         -3.9270    -0.3530     0.8740 ca         1 F47      -0.049500
      6 C22         -4.9690     0.5880     0.8000 ca         1 F47      -0.157000
      7 C1          -1.5780    -1.1250     0.2500 cc         1 F47       0.327500
      8 C2          -1.6970    -2.3650     1.0350 cc         1 F47       0.335900
      9 C6           0.3400    -2.9290     0.4410 cd         1 F47       0.299500
     10 C11          2.9220     0.4320    -0.9420 ca         1 F47      -0.134300
     11 C13          4.7410     1.4580     0.3190 ca         1 F47      -0.178000
     12 N3          -0.7650    -3.3190     1.1720 nd         1 F47      -0.561000
     13 C15          2.6570     2.6660    -0.0000 ca         1 F47      -0.178000
     14 C12          4.2250     0.3730    -0.4110 ca         1 F47      -0.053500
     15 C14          3.9560     2.6040     0.5230 ca         1 F47       0.146100
     16 O17          4.4490     3.6590     1.2300 oh         1 F47      -0.533100
     17 C16          2.1380     1.5840    -0.7310 ca         1 F47      -0.053500
     18 C9           1.7370    -1.8090    -0.8480 cd         1 F47       0.376800
     19 N4          -0.4690    -0.8040    -0.4450 nd         1 F47      -0.419800
     20 N8           2.3450    -2.9310    -0.4590 nc         1 F47      -0.365700
     21 C19         -2.5710     1.0520    -0.5740 ca         1 F47      -0.049500
     22 C20         -3.6180     1.9880    -0.6420 ca         1 F47      -0.157000
     23 C21         -4.8130     1.7540     0.0440 ca         1 F47       0.196000
     24 H22         -5.9010     0.4120     1.3310 ha         1 F47       0.140000
     25 H20         -3.5010     2.8950    -1.2290 ha         1 F47       0.140000
     26 H23         -4.1060    -1.2380     1.4760 ha         1 F47       0.127000
     27 H19         -1.6600     1.2770    -1.1240 ha         1 F47       0.127000
     28 H2          -2.5890    -2.6120     1.5870 h4         1 F47       0.046100
     29 H101         1.6110    -0.4010    -2.4470 hc         1 F47       0.076200
     30 H102         3.1510    -1.2050    -2.3300 hc         1 F47       0.076200
     31 H12          4.8380    -0.5140    -0.5620 ha         1 F47       0.118500
     32 H16          1.1270     1.6400    -1.1300 ha         1 F47       0.118500
     33 H13          5.7490     1.4000     0.7230 ha         1 F47       0.122500
     34 H17          5.3620     3.4410     1.5160 ho         1 F47       0.466000
     35 H15          2.0490     3.5530     0.1600 ha         1 F47       0.122500
     36 C10          2.3580    -0.7510    -1.7240 c3         1 F47      -0.025400
@<TRIPOS>BOND
     1     1    23 1   
     2     2     9 1   
     3     2    18 1   
     4     2    19 1   
     5     3     9 2   
     6     3    20 1   
     7     4     5 ar  
     8     4     7 1   
     9     4    21 ar  
    10     5     6 ar  
    11     5    26 1   
    12     6    23 ar  
    13     6    24 1   
    14     7     8 1   
    15     7    19 2   
    16     8    12 2   
    17     8    28 1   
    18     9    12 1   
    19    10    14 ar  
    20    10    17 ar  
    21    10    36 1   
    22    11    14 ar  
    23    11    15 ar  
    24    11    33 1   
    25    13    15 ar  
    26    13    17 ar  
    27    13    35 1   
    28    14    31 1   
    29    15    16 1   
    30    16    34 1   
    31    17    32 1   
    32    18    20 2   
    33    18    36 1   
    34    21    22 ar  
    35    21    27 1   
    36    22    23 ar  
    37    22    25 1   
    38    29    36 1   
    39    30    36 1   
@<TRIPOS>SUBSTRUCTURE
     1 F47         1 TEMP              0 ****  ****    0 ROOT
