@<TRIPOS>MOLECULE
F47
   36    39     1     0     0
SMALL
bcc


@<TRIPOS>ATOM
      1 F24         -5.2560     2.8880     0.2160 f          1 F47      -0.133900
      2 N5           0.5810    -1.8710    -0.4780 na         1 F47      -0.073500
      3 N7           1.4780    -3.8120    -0.0140 nc         1 F47      -0.031000
      4 C18         -2.4220    -0.0720     0.1800 ca         1 F47      -0.176500
      5 C23         -3.3310     0.0240     1.2330 ca         1 F47      -0.067500
      6 C22         -4.2900     1.0240     1.2540 ca         1 F47      -0.175000
      7 C1          -1.3910    -1.1180     0.1670 cc         1 F47       0.327500
      8 C2          -1.5910    -2.3830     0.8460 cc         1 F47       0.335900
      9 C6           0.4180    -3.0710     0.1670 cd         1 F47       0.299500
     10 C11          2.7470     0.3690    -0.9570 ca         1 F47      -0.134300
     11 C13          4.1340     1.3990     0.7380 ca         1 F47      -0.196000
     12 N3          -0.7150    -3.3310     0.8430 nd         1 F47      -0.561000
     13 C15          2.2810     2.6170    -0.1910 ca         1 F47      -0.196000
     14 C12          3.8220     0.3220    -0.0770 ca         1 F47      -0.071500
     15 C14          3.3620     2.5580     0.6840 ca         1 F47       0.146100
     16 O17          3.6160     3.6400     1.4470 oh         1 F47      -0.494100
     17 C16          1.9820     1.5300    -0.9970 ca         1 F47      -0.071500
     18 C9           1.8060    -1.9270    -1.0570 cd         1 F47       0.376800
     19 N4          -0.3020    -0.8830    -0.4960 nd         1 F47      -0.419800
     20 N8           2.3310    -3.0910    -0.7720 nc         1 F47      -0.365700
     21 C19         -2.4870     0.8590    -0.8580 ca         1 F47      -0.067500
     22 C20         -3.4410     1.8600    -0.8530 ca         1 F47      -0.175000
     23 C21         -4.3290     1.9240     0.2070 ca         1 F47       0.160900
     24 H22         -4.9900     1.1020     2.0740 ha         1 F47       0.158000
     25 H20         -3.4980     2.5750    -1.6620 ha         1 F47       0.158000
     26 H23         -3.2940    -0.6640     2.0670 ha         1 F47       0.145000
     27 H19         -1.7950     0.7960    -1.6870 ha         1 F47       0.145000
     28 H2          -2.5220    -2.5690     1.3660 h4         1 F47       0.046100
     29 H101         1.7500    -0.5220    -2.6400 hc         1 F47       0.076200
     30 H102         3.3240    -1.2160    -2.2950 hc         1 F47       0.076200
     31 H12          4.4350    -0.5710    -0.0240 ha         1 F47       0.136500
     32 H16          1.1340     1.5910    -1.6670 ha         1 F47       0.136500
     33 H13          4.9800     1.3360     1.4130 ha         1 F47       0.140500
     34 H17          4.3900     3.4880     2.0020 ho         1 F47       0.427000
     35 H15          1.6770     3.5150    -0.2390 ha         1 F47       0.140500
     36 C10          2.4200    -0.8200    -1.8300 c3         1 F47      -0.025400
@<TRIPOS>BOND
     1     1    23 1   
     2     2     9 1   
     3     2    18 1   
     4     2    19 1   
     5     3     9 2   
     6     3    20 1   
     7     4     5 ar  
     8     4     7 1   
     9     4    21 ar  
    10     5     6 ar  
    11     5    26 1   
    12     6    23 ar  
    13     6    24 1   
    14     7     8 1   
    15     7    19 2   
    16     8    12 2   
    17     8    28 1   
    18     9    12 1   
    19    10    14 ar  
    20    10    17 ar  
    21    10    36 1   
    22    11    14 ar  
    23    11    15 ar  
    24    11    33 1   
    25    13    15 ar  
    26    13    17 ar  
    27    13    35 1   
    28    14    31 1   
    29    15    16 1   
    30    16    34 1   
    31    17    32 1   
    32    18    20 2   
    33    18    36 1   
    34    21    22 ar  
    35    21    27 1   
    36    22    23 ar  
    37    22    25 1   
    38    29    36 1   
    39    30    36 1   
@<TRIPOS>SUBSTRUCTURE
     1 F47         1 TEMP              0 ****  ****    0 ROOT
