@<TRIPOS>MOLECULE
F48
   48    52     1     0     0
SMALL
bcc


@<TRIPOS>ATOM
      1 C4          -3.4310     2.6290    -0.1390 ca         1 F48       0.493200
      2 C5          -3.5650    -1.5300    -0.3600 cc         1 F48      -0.179200
      3 C6          -4.9230    -1.5520    -0.5160 cd         1 F48      -0.122100
      4 N1          -5.4090    -0.2810    -0.4900 na         1 F48      -0.253100
      5 C7          -0.0960     1.6270     0.1390 cc         1 F48       0.348800
      6 C8           1.3330     1.8420     0.2480 cc         1 F48       0.226400
      7 N2          -0.6950     0.3890     0.0720 na         1 F48      -0.118300
      8 C9           2.0480     2.7580     0.9490 cd         1 F48      -0.209300
      9 C10          3.4140     2.5300     0.6180 cd         1 F48      -0.259300
     10 C11          3.4310     1.5010    -0.2650 cc         1 F48       0.241000
     11 C12          4.5250     0.7980    -0.9770 c3         1 F48      -0.098700
     12 N3          -0.9450     2.6150     0.0850 nd         1 F48      -0.528100
     13 C13          4.5430    -0.7060    -0.6570 c3         1 F48      -0.016300
     14 C14          5.6430    -1.3780    -1.3300 c1         1 F48       0.203700
     15 C15         -0.0370    -0.8930     0.3220 c6         1 F48       0.065000
     16 N4           6.5180    -1.8970    -1.8670 n1         1 F48      -0.364800
     17 O            2.1690     1.0810    -0.4980 os         1 F48      -0.331800
     18 C           -2.1720     2.0220    -0.0320 ca         1 F48      -0.091900
     19 N           -4.5310     1.9230    -0.2790 nb         1 F48      -0.691000
     20 C1          -2.0370     0.6260    -0.0610 ca         1 F48       0.000800
     21 C2          -3.1890    -0.1600    -0.2280 ca         1 F48      -0.194100
     22 C3          -4.3820     0.5970    -0.3230 ca         1 F48       0.422800
     23 C20          0.0090    -1.7710    -0.9240 c6         1 F48      -0.091900
     24 C19          0.7520    -3.0710    -0.6310 c6         1 F48      -0.073400
     25 C18          0.1570    -3.7990     0.5700 c6         1 F48      -0.078400
     26 C17          0.1330    -2.9010     1.8020 c6         1 F48      -0.073400
     27 C16         -0.6290    -1.6060     1.5350 c6         1 F48      -0.091900
     28 H1          -3.5230     3.7100    -0.1080 h4         1 F48       0.036100
     29 H2          -2.9280    -2.3980    -0.3540 ha         1 F48       0.155000
     30 H3          -5.5830    -2.3930    -0.6480 h4         1 F48       0.166000
     31 H4          -6.3780    -0.0230    -0.5830 hn         1 F48       0.310700
     32 H5           1.6480     3.4930     1.6290 ha         1 F48       0.175000
     33 H6           4.2750     3.0620     0.9910 ha         1 F48       0.164000
     34 H7           4.4300     0.9370    -2.0560 hc         1 F48       0.072700
     35 H8           5.4700     1.2510    -0.6770 hc         1 F48       0.072700
     36 H9           4.6470    -0.8740     0.4160 hc         1 F48       0.077200
     37 H10          3.6160    -1.1850    -0.9760 hc         1 F48       0.077200
     38 H11          0.9920    -0.6540     0.5890 h1         1 F48       0.067700
     39 H12         -1.0030    -2.0020    -1.2670 hc         1 F48       0.058450
     40 H13          0.4970    -1.2240    -1.7340 hc         1 F48       0.058450
     41 H14          0.7330    -3.7110    -1.5150 hc         1 F48       0.042700
     42 H15          1.8080    -2.8540    -0.4330 hc         1 F48       0.042700
     43 H16         -0.8630    -4.1210     0.3310 hc         1 F48       0.043200
     44 H17          0.7250    -4.7080     0.7790 hc         1 F48       0.043200
     45 H18         -0.3210    -3.4230     2.6470 hc         1 F48       0.042700
     46 H19          1.1600    -2.6640     2.0990 hc         1 F48       0.042700
     47 H20         -0.5740    -0.9440     2.4030 hc         1 F48       0.058450
     48 H21         -1.6860    -1.8350     1.3830 hc         1 F48       0.058450
@<TRIPOS>BOND
     1     1    18 ar  
     2     1    19 ar  
     3     1    28 1   
     4     2     3 2   
     5     2    21 1   
     6     2    29 1   
     7     3     4 1   
     8     3    30 1   
     9     4    22 1   
    10     4    31 1   
    11     5     6 1   
    12     5     7 1   
    13     5    12 2   
    14     6     8 2   
    15     6    17 1   
    16     7    15 1   
    17     7    20 1   
    18     8     9 1   
    19     8    32 1   
    20     9    10 2   
    21     9    33 1   
    22    10    11 1   
    23    10    17 1   
    24    11    13 1   
    25    11    34 1   
    26    11    35 1   
    27    12    18 1   
    28    13    14 1   
    29    13    36 1   
    30    13    37 1   
    31    14    16 3   
    32    15    23 1   
    33    15    27 1   
    34    15    38 1   
    35    18    20 ar  
    36    19    22 ar  
    37    20    21 ar  
    38    21    22 ar  
    39    23    24 1   
    40    23    39 1   
    41    23    40 1   
    42    24    25 1   
    43    24    41 1   
    44    24    42 1   
    45    25    26 1   
    46    25    43 1   
    47    25    44 1   
    48    26    27 1   
    49    26    45 1   
    50    26    46 1   
    51    27    47 1   
    52    27    48 1   
@<TRIPOS>SUBSTRUCTURE
     1 F48         1 TEMP              0 ****  ****    0 ROOT
