@<TRIPOS>MOLECULE
F48
   48    52     1     0     0
SMALL
No Charge or Current Charge


@<TRIPOS>ATOM
      1 C4          -3.4850     2.6090     0.6110 ca         1 F48       0.427900
      2 C5          -3.5630    -1.3650    -0.5580 cc         1 F48      -0.229200
      3 C6          -4.9380    -1.5070    -0.6090 cd         1 F48      -0.172100
      4 N1          -5.5290    -0.2860    -0.2070 na         1 F48      -0.303400
      5 C7          -0.0890     1.6710     0.1650 cc         1 F48       0.348800
      6 C8           1.3390     1.8460    -0.0220 cc         1 F48       0.116700
      7 N2          -0.7450     0.4270     0.0280 na         1 F48      -0.147600
      8 C9           2.0200     3.0240     0.1380 cd         1 F48      -0.126000
      9 C10          3.3710     2.7530    -0.1700 cd         1 F48      -0.176000
     10 C11          3.4490     1.4310    -0.5150 cc         1 F48       0.131300
     11 C12          4.6160     0.5830    -0.9310 c3         1 F48      -0.098700
     12 N3          -0.9610     2.6520     0.4760 nd         1 F48      -0.528100
     13 C13          4.8570    -0.6130     0.0220 c3         1 F48      -0.016300
     14 C14          6.0000    -1.4440    -0.3760 c1         1 F48       0.292900
     15 C15         -0.1200    -0.9150     0.2400 c6         1 F48       0.094300
     16 N4           6.9110    -2.0870    -0.7140 n1         1 F48      -0.454000
     17 O            2.2010     0.8570    -0.4440 os         1 F48      -0.243000
     18 C           -2.2060     2.0250     0.4350 ca         1 F48      -0.026600
     19 N           -4.6360     1.9000     0.4410 nb         1 F48      -0.691000
     20 C1          -2.0980     0.6960     0.1230 ca         1 F48       0.000800
     21 C2          -3.2890    -0.0270    -0.1040 ca         1 F48      -0.128800
     22 C3          -4.5110     0.6050     0.0760 ca         1 F48       0.357500
     23 C20          0.0600    -1.6890    -1.0940 c6         1 F48      -0.091900
     24 C19          0.7750    -3.0450    -0.8660 c6         1 F48      -0.073400
     25 C18          0.0680    -3.8850     0.2260 c6         1 F48      -0.078400
     26 C17         -0.0240    -3.1040     1.5610 c6         1 F48      -0.073400
     27 C16         -0.7720    -1.7610     1.3730 c6         1 F48      -0.091900
     28 H1          -3.5900     3.6640     0.8620 h4         1 F48       0.036100
     29 H2          -2.8610    -2.1510    -0.8160 ha         1 F48       0.205000
     30 H3          -5.5330    -2.3730    -0.8980 h4         1 F48       0.216000
     31 H4          -6.5180    -0.0780    -0.1430 hn         1 F48       0.361000
     32 H5           1.5980     3.9750     0.4470 ha         1 F48       0.157000
     33 H6           4.1960     3.4570    -0.1420 ha         1 F48       0.146000
     34 H7           4.4440     0.2100    -1.9490 hc         1 F48       0.072700
     35 H8           5.5200     1.2040    -0.9730 hc         1 F48       0.072700
     36 H9           5.0300    -0.2450     1.0400 hc         1 F48       0.077200
     37 H10          3.9630    -1.2470     0.0560 hc         1 F48       0.077200
     38 H11          0.8910    -0.7370     0.6230 h1         1 F48       0.067700
     39 H12         -0.9000    -1.8520    -1.5930 hc         1 F48       0.058450
     40 H13          0.6540    -1.0830    -1.7910 hc         1 F48       0.058450
     41 H14          0.8110    -3.6100    -1.8080 hc         1 F48       0.042700
     42 H15          1.8190    -2.8650    -0.5730 hc         1 F48       0.042700
     43 H16         -0.9400    -4.1630    -0.1120 hc         1 F48       0.043200
     44 H17          0.6150    -4.8250     0.3830 hc         1 F48       0.043200
     45 H18         -0.5380    -3.7140     2.3160 hc         1 F48       0.042700
     46 H19          0.9870    -2.9150     1.9490 hc         1 F48       0.042700
     47 H20         -0.7460    -1.1950     2.3140 hc         1 F48       0.058450
     48 H21         -1.8260    -1.9720     1.1820 hc         1 F48       0.058450
@<TRIPOS>BOND
     1     1    18 ar  
     2     1    19 ar  
     3     1    28 1   
     4     2     3 2   
     5     2    21 1   
     6     2    29 1   
     7     3     4 1   
     8     3    30 1   
     9     4    22 1   
    10     4    31 1   
    11     5     6 1   
    12     5     7 1   
    13     5    12 2   
    14     6     8 2   
    15     6    17 1   
    16     7    15 1   
    17     7    20 1   
    18     8     9 1   
    19     8    32 1   
    20     9    10 2   
    21     9    33 1   
    22    10    11 1   
    23    10    17 1   
    24    11    13 1   
    25    11    34 1   
    26    11    35 1   
    27    12    18 1   
    28    13    14 1   
    29    13    36 1   
    30    13    37 1   
    31    14    16 3   
    32    15    23 1   
    33    15    27 1   
    34    15    38 1   
    35    18    20 ar  
    36    19    22 ar  
    37    20    21 ar  
    38    21    22 ar  
    39    23    24 1   
    40    23    39 1   
    41    23    40 1   
    42    24    25 1   
    43    24    41 1   
    44    24    42 1   
    45    25    26 1   
    46    25    43 1   
    47    25    44 1   
    48    26    27 1   
    49    26    45 1   
    50    26    46 1   
    51    27    47 1   
    52    27    48 1   
@<TRIPOS>SUBSTRUCTURE
     1 F48         1 TEMP              0 ****  ****    0 ROOT
