@<TRIPOS>MOLECULE
F49
   34    35     1     0     0
SMALL
No Charge or Current Charge


@<TRIPOS>ATOM
      1 O23          3.9100     0.3190     1.7460 o          1 F49      -0.561000
      2 C10          3.6810     0.8300     0.6560 c          1 F49       0.629000
      3 N12          4.6570     0.8070    -0.3700 n          1 F49      -0.246000
      4 C19          5.9510     0.1080    -0.1140 c3         1 F49      -0.061000
      5 C20          5.8540    -1.4350    -0.0740 c          1 F49       0.717000
      6 O22          6.3790    -2.0230     0.8610 o          1 F49      -0.711000
      7 O21          5.2800    -2.0040    -0.9920 o          1 F49      -0.711000
      8 C13          4.4230     1.4050    -1.6000 cc         1 F49       0.048600
      9 C11          3.2350     2.0500    -1.8220 cd         1 F49      -0.440200
     10 C9           2.1750     2.1230    -0.8190 c          1 F49       0.594200
     11 O18          1.1320     2.7190    -1.0380 o          1 F49      -0.573000
     12 N8           2.4560     1.4700     0.3870 n          1 F49      -0.366400
     13 C7           1.3940     1.4710     1.4360 c3         1 F49       0.146300
     14 C1           0.0810     0.7810     1.0230 ca         1 F49      -0.065300
     15 C3           0.1010    -0.5820     0.6410 ca         1 F49       0.167100
     16 O24          1.2840    -1.2830     0.6570 os         1 F49      -0.323100
     17 C25          1.6310    -2.0510     1.8220 c3         1 F49       0.149900
     18 C5          -1.0760    -1.2340     0.2220 ca         1 F49      -0.034900
     19 Br7         -0.9980    -3.0740    -0.3490 br         1 F49      -0.039100
     20 C6          -2.2990    -0.5380     0.2060 ca         1 F49       0.020100
     21 Br6         -3.9090    -1.4310    -0.3630 br         1 F49      -0.057100
     22 C4          -2.3410     0.8130     0.6080 ca         1 F49      -0.009900
     23 Br5         -4.0220     1.7590     0.5910 br         1 F49      -0.060100
     24 C2          -1.1590     1.4740     1.0130 ca         1 F49       0.044100
     25 Br4         -1.2730     3.3270     1.5510 br         1 F49      -0.064100
     26 H1           6.6760     0.3720    -0.8930 h1         1 F49       0.045700
     27 H2           6.3610     0.4560     0.8420 h1         1 F49       0.045700
     28 H4           5.2460     1.3070    -2.3030 h4         1 F49       0.199000
     29 H5           3.0160     2.5420    -2.7620 ha         1 F49       0.206000
     30 H6           1.7450     0.9830     2.3520 h1         1 F49       0.077700
     31 H7           1.2280     2.5150     1.7190 h1         1 F49       0.077700
     32 H8           2.6000    -2.5430     1.6790 h1         1 F49       0.052033
     33 H9           1.7030    -1.4060     2.7060 h1         1 F49       0.052033
     34 H10          0.8780    -2.8240     2.0200 h1         1 F49       0.052033
@<TRIPOS>BOND
     1     1     2 2   
     2     2     3 1   
     3     2    12 1   
     4     3     4 1   
     5     3     8 1   
     6     4     5 1   
     7     4    26 1   
     8     4    27 1   
     9     5     6 1   
    10     5     7 1   
    11     8     9 2   
    12     8    28 1   
    13     9    10 1   
    14     9    29 1   
    15    10    11 2   
    16    10    12 1   
    17    12    13 1   
    18    13    14 1   
    19    13    30 1   
    20    13    31 1   
    21    14    15 ar  
    22    14    24 ar  
    23    15    16 1   
    24    15    18 ar  
    25    16    17 1   
    26    17    32 1   
    27    17    33 1   
    28    17    34 1   
    29    18    19 1   
    30    18    20 ar  
    31    20    21 1   
    32    20    22 ar  
    33    22    23 1   
    34    22    24 ar  
    35    24    25 1   
@<TRIPOS>SUBSTRUCTURE
     1 F49         1 TEMP              0 ****  ****    0 ROOT
