@<TRIPOS>MOLECULE
F49
   34    35     1     0     0
SMALL
abcg2


@<TRIPOS>ATOM
      1 O23          3.9190     0.4450     1.8460 o          1 F49      -0.561000
      2 C10          3.6600     0.8510     0.7320 c          1 F49       0.629000
      3 N12          4.5810     0.7910    -0.2860 n          1 F49      -0.246000
      4 C19          5.8280     0.0960    -0.0150 c3         1 F49      -0.061000
      5 C20          5.6680    -1.4390     0.0480 c          1 F49       0.717000
      6 O22          6.6530    -2.0390     0.5160 o          1 F49      -0.711000
      7 O21          4.6120    -1.9150    -0.3950 o          1 F49      -0.711000
      8 C13          4.2880     1.2350    -1.5310 cc         1 F49       0.048600
      9 C11          3.1280     1.8410    -1.8360 cd         1 F49      -0.440200
     10 C9           2.1300     2.0100    -0.8170 c          1 F49       0.594200
     11 O18          1.0640     2.5840    -0.9620 o          1 F49      -0.573000
     12 N8           2.4500     1.4430     0.4150 n          1 F49      -0.366400
     13 C7           1.4260     1.4990     1.4500 c3         1 F49       0.146300
     14 C1           0.1380     0.8280     1.0270 ca         1 F49      -0.065300
     15 C3           0.1990    -0.4930     0.5770 ca         1 F49       0.167100
     16 O24          1.3870    -1.1230     0.5390 os         1 F49      -0.323100
     17 C25          1.7080    -1.9190     1.6820 c3         1 F49       0.149900
     18 C5          -0.9430    -1.1440     0.1100 ca         1 F49      -0.034900
     19 BR7         -0.7500    -2.8650    -0.5980 br         1 F49      -0.039100
     20 C6          -2.1780    -0.5060     0.1410 ca         1 F49       0.020100
     21 BR6         -3.7030    -1.3920    -0.4790 br         1 F49      -0.057100
     22 C4          -2.2650     0.7930     0.6430 ca         1 F49      -0.009900
     23 BR5         -3.9290     1.6490     0.7160 br         1 F49      -0.060100
     24 C2          -1.1090     1.4520     1.0660 ca         1 F49       0.044100
     25 BR4         -1.2570     3.2120     1.7090 br         1 F49      -0.064100
     26 H1           6.5210     0.3490    -0.8200 h1         1 F49       0.045700
     27 H2           6.2660     0.4780     0.9060 h1         1 F49       0.045700
     28 H4           5.0640     1.0960    -2.2710 h4         1 F49       0.199000
     29 H5           2.9380     2.2110    -2.8310 ha         1 F49       0.206000
     30 H6           1.8190     1.0120     2.3380 h1         1 F49       0.077700
     31 H7           1.2620     2.5380     1.7170 h1         1 F49       0.077700
     32 H8           2.7010    -2.3170     1.4980 h1         1 F49       0.052033
     33 H9           1.7220    -1.3190     2.5930 h1         1 F49       0.052033
     34 H10          1.0000    -2.7400     1.8110 h1         1 F49       0.052033
@<TRIPOS>BOND
     1     1     2 2   
     2     2     3 1   
     3     2    12 1   
     4     3     4 1   
     5     3     8 1   
     6     4     5 1   
     7     4    26 1   
     8     4    27 1   
     9     5     6 1   
    10     5     7 1   
    11     8     9 2   
    12     8    28 1   
    13     9    10 1   
    14     9    29 1   
    15    10    11 2   
    16    10    12 1   
    17    12    13 1   
    18    13    14 1   
    19    13    30 1   
    20    13    31 1   
    21    14    15 ar  
    22    14    24 ar  
    23    15    16 1   
    24    15    18 ar  
    25    16    17 1   
    26    17    32 1   
    27    17    33 1   
    28    17    34 1   
    29    18    19 1   
    30    18    20 ar  
    31    20    21 1   
    32    20    22 ar  
    33    22    23 1   
    34    22    24 ar  
    35    24    25 1   
@<TRIPOS>SUBSTRUCTURE
     1 F49         1 TEMP              0 ****  ****    0 ROOT
