@<TRIPOS>MOLECULE
F4A
   29    31     1     0     0
SMALL
bcc


@<TRIPOS>ATOM
      1 O26          5.7300    -1.0300    -0.3010 o          1 F4A      -0.609100
      2 C17          5.0410    -0.0810     0.0530 c          1 F4A       0.688700
      3 N27          5.5740     1.0870     0.4500 nt         1 F4A      -0.670000
      4 C14          3.5530    -0.1680     0.0540 ca         1 F4A      -0.184600
      5 C15          2.7190     0.9460     0.0380 ca         1 F4A      -0.060000
      6 C16          1.3390     0.8260     0.0210 ca         1 F4A      -0.181500
      7 C11          0.7530    -0.4430     0.0240 ca         1 F4A       0.190600
      8 C12          1.5880    -1.5680     0.0300 ca         1 F4A      -0.181500
      9 C13          2.9590    -1.4300     0.0360 ca         1 F4A      -0.060000
     10 N10         -0.6120    -0.6870     0.0120 nu         1 F4A      -0.724300
     11 C2          -1.6730     0.1570     0.0230 ca         1 F4A       0.774200
     12 N3          -1.5320     1.4760     0.0520 nb         1 F4A      -0.804000
     13 C4          -2.6220     2.2460     0.0630 ca         1 F4A       0.704900
     14 N5          -3.8870     1.8710     0.0490 nb         1 F4A      -0.729000
     15 C6          -4.0140     0.5460     0.0190 ca         1 F4A       0.448800
     16 C1          -2.9730    -0.3740     0.0040 ca         1 F4A      -0.222200
     17 N7          -5.1430    -0.2110    -0.0030 na         1 F4A      -0.358000
     18 C8          -4.7460    -1.5120    -0.0290 cc         1 F4A       0.409700
     19 N9          -3.4510    -1.6560    -0.0260 nd         1 F4A      -0.555100
     20 H1           6.5750     1.1820     0.4950 hn         1 F4A       0.312000
     21 H2           5.0330     1.8040     0.9000 hn         1 F4A       0.312000
     22 H3           3.1290     1.9480     0.0150 ha         1 F4A       0.141500
     23 H4           0.7240     1.7100     0.0010 ha         1 F4A       0.154000
     24 H5           1.1530    -2.5610     0.0300 ha         1 F4A       0.154000
     25 H6           3.5780    -2.3170     0.0360 ha         1 F4A       0.141500
     26 H7          -0.8660    -1.6640    -0.0050 hn         1 F4A       0.464800
     27 H8          -2.4360     3.3130     0.0870 h5         1 F4A       0.051100
     28 H9          -6.0950     0.1210     0.0010 hn         1 F4A       0.322700
     29 H10         -5.4630    -2.3180    -0.0510 h5         1 F4A       0.069800
@<TRIPOS>BOND
     1     1     2 2   
     2     2     3 1   
     3     2     4 1   
     4     3    20 1   
     5     3    21 1   
     6     4     5 ar  
     7     4     9 ar  
     8     5     6 ar  
     9     5    22 1   
    10     6     7 ar  
    11     6    23 1   
    12     7     8 ar  
    13     7    10 1   
    14     8     9 ar  
    15     8    24 1   
    16     9    25 1   
    17    10    11 1   
    18    10    26 1   
    19    11    12 ar  
    20    11    16 ar  
    21    12    13 ar  
    22    13    14 ar  
    23    13    27 1   
    24    14    15 ar  
    25    15    16 ar  
    26    15    17 1   
    27    16    19 1   
    28    17    18 1   
    29    17    28 1   
    30    18    19 2   
    31    18    29 1   
@<TRIPOS>SUBSTRUCTURE
     1 F4A         1 TEMP              0 ****  ****    0 ROOT
