@<TRIPOS>MOLECULE
F4A
   29    31     1     0     0
SMALL
No Charge or Current Charge


@<TRIPOS>ATOM
      1 O26          5.8250    -1.0280    -0.2240 o          1 F4A      -0.609100
      2 C17          5.1040    -0.0960     0.0920 c          1 F4A       0.621700
      3 N27          5.6710     1.0750     0.4540 nt         1 F4A      -0.603000
      4 C14          3.5950    -0.1960     0.0960 ca         1 F4A      -0.184600
      5 C15          2.7710     0.8910     0.4730 ca         1 F4A      -0.042000
      6 C16          1.3700     0.7620     0.4640 ca         1 F4A      -0.163500
      7 C11          0.7620    -0.4440     0.0740 ca         1 F4A       0.329000
      8 C12          1.5760    -1.5280    -0.2850 ca         1 F4A      -0.163500
      9 C13          2.9770    -1.4090    -0.2800 ca         1 F4A      -0.042000
     10 N10         -0.6230    -0.6210     0.0620 nu         1 F4A      -0.917900
     11 C2          -1.7300     0.2190    -0.0410 ca         1 F4A       0.445900
     12 N3          -1.5510     1.5330    -0.2860 nb         1 F4A      -0.278000
     13 C4          -2.6730     2.2850    -0.4000 ca         1 F4A       0.178900
     14 N5          -3.9530     1.8520    -0.3030 nb         1 F4A      -0.203000
     15 C6          -4.0990     0.5370    -0.0700 ca         1 F4A       0.120500
     16 C1          -3.0330    -0.3140     0.0630 ca         1 F4A      -0.091600
     17 N7          -5.1990    -0.2510     0.0750 na         1 F4A      -0.408300
     18 C8          -4.7800    -1.5610     0.2900 cc         1 F4A       0.409700
     19 N9          -3.4360    -1.6380     0.2880 nd         1 F4A      -0.555100
     20 H1           6.6770     1.1520     0.4550 hn         1 F4A       0.312000
     21 H2           5.0970     1.8590     0.7180 hn         1 F4A       0.312000
     22 H3           3.1990     1.8420     0.7810 ha         1 F4A       0.123500
     23 H4           0.7680     1.6060     0.7820 ha         1 F4A       0.136000
     24 H5           1.1250    -2.4710    -0.5790 ha         1 F4A       0.136000
     25 H6           3.5800    -2.2660    -0.5710 ha         1 F4A       0.123500
     26 H7          -0.9190    -1.5970     0.0750 hn         1 F4A       0.520000
     27 H8          -2.5310     3.3470    -0.5930 h5         1 F4A       0.051100
     28 H9          -6.1610     0.0560     0.0340 hn         1 F4A       0.373000
     29 H10         -5.4740    -2.3820     0.4350 h5         1 F4A       0.069800
@<TRIPOS>BOND
     1     1     2 2   
     2     2     3 1   
     3     2     4 1   
     4     3    20 1   
     5     3    21 1   
     6     4     5 ar  
     7     4     9 ar  
     8     5     6 ar  
     9     5    22 1   
    10     6     7 ar  
    11     6    23 1   
    12     7     8 ar  
    13     7    10 1   
    14     8     9 ar  
    15     8    24 1   
    16     9    25 1   
    17    10    11 1   
    18    10    26 1   
    19    11    12 ar  
    20    11    16 ar  
    21    12    13 ar  
    22    13    14 ar  
    23    13    27 1   
    24    14    15 ar  
    25    15    16 ar  
    26    15    17 1   
    27    16    19 1   
    28    17    18 1   
    29    17    28 1   
    30    18    19 2   
    31    18    29 1   
@<TRIPOS>SUBSTRUCTURE
     1 F4A         1 TEMP              0 ****  ****    0 ROOT
