@<TRIPOS>MOLECULE
F4B
   46    50     1     0     0
SMALL
No Charge or Current Charge


@<TRIPOS>ATOM
      1 C4           3.9110     2.0880     0.3120 ca         1 F4B       0.429900
      2 C5           3.2930    -1.8990    -0.6260 cc         1 F4B      -0.227200
      3 C6           4.6220    -2.2590    -0.7770 cd         1 F4B      -0.171100
      4 N1           5.4300    -1.1260    -0.5040 na         1 F4B      -0.302400
      5 C7           0.3820     1.5900     0.2480 cc         1 F4B       0.344800
      6 C8          -1.0180     1.9660     0.1900 cc         1 F4B       0.141700
      7 N2           0.8720     0.2690     0.0800 na         1 F4B      -0.143600
      8 C9          -1.4980     3.2330     0.3850 cd         1 F4B      -0.139000
      9 C10         -2.8950     3.1670     0.2040 cd         1 F4B      -0.145000
     10 C11         -3.2070     1.8710    -0.1060 cc         1 F4B       0.156800
     11 C12         -4.4910     1.2500    -0.3910 ce         1 F4B      -0.201800
     12 N3           1.4000     2.4630     0.4270 nd         1 F4B      -0.529100
     13 C13         -4.7060    -0.0550    -0.7280 cf         1 F4B      -0.102700
     14 C14         -5.9910    -0.6140    -0.9970 ch         1 F4B       0.271700
     15 C15          0.2390    -1.0380     0.4280 c6         1 F4B       0.092300
     16 N4          -7.0580    -1.0350    -1.2080 n1         1 F4B      -0.448000
     17 O           -2.0530     1.1190    -0.1330 os         1 F4B      -0.228000
     18 C            2.5500     1.6880     0.2780 ca         1 F4B      -0.023600
     19 N            4.9310     1.2100     0.0800 nb         1 F4B      -0.690000
     20 C1           2.2390     0.3840     0.0280 ca         1 F4B      -0.008200
     21 C2           3.2820    -0.5150    -0.2450 ca         1 F4B      -0.133800
     22 C3           4.5920    -0.0700    -0.2010 ca         1 F4B       0.358500
     23 C20         -0.5410    -1.6640    -0.7610 c6         1 F4B      -0.087400
     24 C19         -1.0880    -3.0650    -0.3900 c6         1 F4B      -0.073900
     25 C18         -1.9290    -3.0210     0.9120 c6         1 F4B      -0.079400
     26 C17         -1.1130    -2.4300     2.0890 c6         1 F4B      -0.073900
     27 C16         -0.5840    -1.0150     1.7490 c6         1 F4B      -0.087400
     28 H1           4.1870     3.1240     0.5100 h4         1 F4B       0.037100
     29 H2           2.4460    -2.5580    -0.8040 ha         1 F4B       0.204000
     30 H3           5.0480    -3.2200    -1.0660 h4         1 F4B       0.217000
     31 H4           6.4410    -1.0750    -0.5360 hn         1 F4B       0.362000
     32 H5          -0.9120     4.1130     0.6330 ha         1 F4B       0.160000
     33 H6          -3.5990     3.9890     0.2900 ha         1 F4B       0.148000
     34 H7          -5.3460     1.9250    -0.3200 ha         1 F4B       0.199000
     35 H8          -3.8610    -0.7390    -0.8070 ha         1 F4B       0.211000
     36 H9           1.0590    -1.7310     0.6490 h1         1 F4B       0.067700
     37 H10         -1.3700    -1.0230    -1.0760 hc         1 F4B       0.056450
     38 H11          0.1220    -1.7510    -1.6330 hc         1 F4B       0.056450
     39 H12         -1.6980    -3.4570    -1.2150 hc         1 F4B       0.044200
     40 H13         -0.2510    -3.7660    -0.2630 hc         1 F4B       0.044200
     41 H14         -2.8350    -2.4210     0.7510 hc         1 F4B       0.044700
     42 H15         -2.2690    -4.0340     1.1680 hc         1 F4B       0.044700
     43 H16         -1.7390    -2.3870     2.9920 hc         1 F4B       0.044200
     44 H17         -0.2710    -3.0950     2.3270 hc         1 F4B       0.044200
     45 H18          0.0500    -0.6550     2.5710 hc         1 F4B       0.056450
     46 H19         -1.4330    -0.3290     1.6960 hc         1 F4B       0.056450
@<TRIPOS>BOND
     1     1    18 ar  
     2     1    19 ar  
     3     1    28 1   
     4     2     3 2   
     5     2    21 1   
     6     2    29 1   
     7     3     4 1   
     8     3    30 1   
     9     4    22 1   
    10     4    31 1   
    11     5     6 1   
    12     5     7 1   
    13     5    12 2   
    14     6     8 2   
    15     6    17 1   
    16     7    15 1   
    17     7    20 1   
    18     8     9 1   
    19     8    32 1   
    20     9    10 2   
    21     9    33 1   
    22    10    11 1   
    23    10    17 1   
    24    11    13 2   
    25    11    34 1   
    26    12    18 1   
    27    13    14 1   
    28    13    35 1   
    29    14    16 3   
    30    15    23 1   
    31    15    27 1   
    32    15    36 1   
    33    18    20 ar  
    34    19    22 ar  
    35    20    21 ar  
    36    21    22 ar  
    37    23    24 1   
    38    23    37 1   
    39    23    38 1   
    40    24    25 1   
    41    24    39 1   
    42    24    40 1   
    43    25    26 1   
    44    25    41 1   
    45    25    42 1   
    46    26    27 1   
    47    26    43 1   
    48    26    44 1   
    49    27    45 1   
    50    27    46 1   
@<TRIPOS>SUBSTRUCTURE
     1 F4B         1 TEMP              0 ****  ****    0 ROOT
