@<TRIPOS>MOLECULE
F4B
   46    50     1     0     0
SMALL
abcg2


@<TRIPOS>ATOM
      1 C4           3.7610     2.1090    -0.4280 ca         1 F4B       0.429900
      2 C5           3.3920    -2.0410    -0.2390 cc         1 F4B      -0.227200
      3 C6           4.7230    -2.2450    -0.4800 cd         1 F4B      -0.171100
      4 N1           5.3570    -1.0470    -0.6150 na         1 F4B      -0.302400
      5 C7           0.3620     1.5100     0.1800 cc         1 F4B       0.344800
      6 C8          -1.0110     1.9330     0.3620 cc         1 F4B       0.141700
      7 N2           0.8290     0.2140     0.1860 na         1 F4B      -0.143600
      8 C9          -1.5110     3.0260     1.0050 cd         1 F4B      -0.139000
      9 C10         -2.9120     2.9820     0.8180 cd         1 F4B      -0.145000
     10 C11         -3.1680     1.8680     0.0680 cc         1 F4B       0.156800
     11 C12         -4.3970     1.3210    -0.4080 ce         1 F4B      -0.201800
     12 N3           1.3020     2.3930    -0.0230 nd         1 F4B      -0.529100
     13 C13         -4.5160     0.1960    -1.1360 cf         1 F4B      -0.102700
     14 C14         -5.7840    -0.2670    -1.5650 ch         1 F4B       0.271700
     15 C15          0.1820    -1.0550     0.5350 c6         1 F4B       0.092300
     16 N4          -6.8050    -0.6570    -1.9350 n1         1 F4B      -0.448000
     17 O           -2.0060     1.2370    -0.2150 os         1 F4B      -0.228000
     18 C            2.4500     1.6700    -0.1790 ca         1 F4B      -0.023600
     19 N            4.7570     1.2630    -0.5700 nb         1 F4B      -0.690000
     20 C1           2.1670     0.3050    -0.0680 ca         1 F4B      -0.008200
     21 C2           3.1990    -0.6290    -0.2250 ca         1 F4B      -0.133800
     22 C3           4.4570    -0.0360    -0.4710 ca         1 F4B       0.358500
     23 C20         -0.4780    -1.7220    -0.6670 c6         1 F4B      -0.087400
     24 C19         -0.9930    -3.1070    -0.2820 c6         1 F4B      -0.073900
     25 C18         -1.9130    -3.0450     0.9330 c6         1 F4B      -0.079400
     26 C17         -1.2260    -2.3710     2.1150 c6         1 F4B      -0.073900
     27 C16         -0.7380    -0.9700     1.7500 c6         1 F4B      -0.087400
     28 H1           3.9800     3.1680    -0.5100 h4         1 F4B       0.037100
     29 H2           2.6580    -2.8190    -0.1050 ha         1 F4B       0.204000
     30 H3           5.2690    -3.1700    -0.5710 h4         1 F4B       0.217000
     31 H4           6.3400    -0.9250    -0.7960 hn         1 F4B       0.362000
     32 H5          -0.9430     3.7570     1.5540 ha         1 F4B       0.160000
     33 H6          -3.6460     3.6760     1.1930 ha         1 F4B       0.148000
     34 H7          -5.2820     1.8850    -0.1400 ha         1 F4B       0.199000
     35 H8          -3.6660    -0.4040    -1.4360 ha         1 F4B       0.211000
     36 H9           1.0120    -1.6920     0.8480 h1         1 F4B       0.067700
     37 H10         -1.3040    -1.1070    -1.0300 hc         1 F4B       0.056450
     38 H11          0.2430    -1.7990    -1.4840 hc         1 F4B       0.056450
     39 H12         -1.5140    -3.5500    -1.1320 hc         1 F4B       0.044200
     40 H13         -0.1440    -3.7630    -0.0620 hc         1 F4B       0.044200
     41 H14         -2.8210    -2.4890     0.6740 hc         1 F4B       0.044700
     42 H15         -2.2360    -4.0510     1.2100 hc         1 F4B       0.044700
     43 H16         -1.9070    -2.3050     2.9650 hc         1 F4B       0.044200
     44 H17         -0.3770    -2.9800     2.4430 hc         1 F4B       0.044200
     45 H18         -0.1960    -0.5240     2.5870 hc         1 F4B       0.056450
     46 H19         -1.6070    -0.3430     1.5570 hc         1 F4B       0.056450
@<TRIPOS>BOND
     1     1    18 ar  
     2     1    19 ar  
     3     1    28 1   
     4     2     3 2   
     5     2    21 1   
     6     2    29 1   
     7     3     4 1   
     8     3    30 1   
     9     4    22 1   
    10     4    31 1   
    11     5     6 1   
    12     5     7 1   
    13     5    12 2   
    14     6     8 2   
    15     6    17 1   
    16     7    15 1   
    17     7    20 1   
    18     8     9 1   
    19     8    32 1   
    20     9    10 2   
    21     9    33 1   
    22    10    11 1   
    23    10    17 1   
    24    11    13 2   
    25    11    34 1   
    26    12    18 1   
    27    13    14 1   
    28    13    35 1   
    29    14    16 3   
    30    15    23 1   
    31    15    27 1   
    32    15    36 1   
    33    18    20 ar  
    34    19    22 ar  
    35    20    21 ar  
    36    21    22 ar  
    37    23    24 1   
    38    23    37 1   
    39    23    38 1   
    40    24    25 1   
    41    24    39 1   
    42    24    40 1   
    43    25    26 1   
    44    25    41 1   
    45    25    42 1   
    46    26    27 1   
    47    26    43 1   
    48    26    44 1   
    49    27    45 1   
    50    27    46 1   
@<TRIPOS>SUBSTRUCTURE
     1 F4B         1 TEMP              0 ****  ****    0 ROOT
