@<TRIPOS>MOLECULE
F4C
   50    53     1     0     0
SMALL
bcc


@<TRIPOS>ATOM
      1 N1          -1.8570    -0.8240     0.0570 n          1 F4C      -0.093000
      2 N3           1.8230     1.1910     0.8300 ns         1 F4C      -0.559900
      3 C4          -2.9440     1.1540     0.1110 cc         1 F4C       0.384200
      4 C6           0.7050     1.9040     0.6980 c          1 F4C       0.687300
      5 C7           4.8690     0.4080    -0.1680 ca         1 F4C      -0.175300
      6 C8          -2.0140    -2.2390    -0.0830 ca         1 F4C       0.021600
      7 C10         -4.2350     1.8620     0.0170 ca         1 F4C      -0.074900
      8 C13         -2.7440    -2.9310     0.8700 ca         1 F4C      -0.076000
      9 C15         -2.9310    -4.2980     0.7340 ca         1 F4C      -0.166500
     10 C17          5.8490    -0.5780    -0.1260 ca         1 F4C      -0.085000
     11 C20         -5.4410     1.1620     0.0510 ca         1 F4C      -0.225300
     12 C21         -4.3040     3.2450    -0.1130 ca         1 F4C      -0.225300
     13 C22          4.5330     0.1400     2.1900 ca         1 F4C      -0.122000
     14 C24          5.5030    -0.8500     2.2310 ca         1 F4C      -0.099000
     15 C14         -2.3720    -4.9360    -0.3560 ca         1 F4C       0.149900
     16 C16         -1.6410    -4.2590    -1.3150 ca         1 F4C      -0.166500
     17 C12         -1.4630    -2.8930    -1.1740 ca         1 F4C      -0.076000
     18 C2          -0.5930    -0.3120     0.3120 c          1 F4C       0.692700
     19 O1           0.3630    -1.0690     0.4100 o          1 F4C      -0.615500
     20 N2          -2.9760    -0.1360    -0.0260 nd         1 F4C      -0.400300
     21 C18         -6.6280     1.8660    -0.0400 ca         1 F4C       0.399200
     22 C19         -5.5490     3.8520    -0.1980 ca         1 F4C       0.399200
     23 N4          -6.6960     3.1880    -0.1620 nb         1 F4C      -0.654000
     24 C3          -1.7160     1.8290     0.3450 cc         1 F4C      -0.107600
     25 C1          -0.5590     1.1320     0.4440 cd         1 F4C      -0.249400
     26 O2           0.6730     3.1250     0.7730 o          1 F4C      -0.615100
     27 C11          3.1070     1.8230     1.0610 c3         1 F4C       0.148300
     28 C9           4.2000     0.7850     1.0040 ca         1 F4C      -0.058300
     29 C23          6.1640    -1.2080     1.0680 ca         1 F4C      -0.125000
     30 F1           5.1970     0.4970    -2.5040 f          1 F4C      -0.233300
     31 F2           3.2670     1.0730    -1.7720 f          1 F4C      -0.233300
     32 F3           4.9620     2.3660    -1.4750 f          1 F4C      -0.233300
     33 HN3          1.7580     0.1820     0.7620 hn         1 F4C       0.358500
     34 H13         -3.1670    -2.4100     1.7180 ha         1 F4C       0.150500
     35 H15         -3.4990    -4.8540     1.4680 ha         1 F4C       0.157500
     36 H17          6.3790    -0.8680    -1.0220 ha         1 F4C       0.151000
     37 H20         -5.4620     0.0860     0.1540 ha         1 F4C       0.152000
     38 H21         -3.4220     3.8680    -0.1600 ha         1 F4C       0.152000
     39 H22          4.0210     0.4250     3.1010 ha         1 F4C       0.141000
     40 H24          5.7410    -1.3340     3.1680 ha         1 F4C       0.140000
     41 H16         -1.2210    -4.7860    -2.1610 ha         1 F4C       0.157500
     42 H12         -0.9070    -2.3440    -1.9220 ha         1 F4C       0.150500
     43 H18         -7.5710     1.3320    -0.0110 h4         1 F4C       0.023600
     44 H19         -5.6120     4.9290    -0.2990 h4         1 F4C       0.023600
     45 H3          -1.6930     2.9030     0.4570 ha         1 F4C       0.179000
     46 H11          3.2580     2.6320     0.3480 h1         1 F4C       0.065200
     47 H11A         3.1190     2.2880     2.0500 h1         1 F4C       0.065200
     48 H23          6.9280    -1.9740     1.0830 ha         1 F4C       0.141000
     49 F4          -2.5470    -6.2570    -0.4930 f          1 F4C      -0.136900
     50 C5           4.5730     1.0810    -1.4770 c3         1 F4C       0.719200
@<TRIPOS>BOND
     1     1     6 1   
     2     1    18 1   
     3     1    20 1   
     4     2     4 1   
     5     2    27 1   
     6     2    33 1   
     7     3     7 1   
     8     3    20 2   
     9     3    24 1   
    10     4    25 1   
    11     4    26 2   
    12     5    10 ar  
    13     5    28 ar  
    14     5    50 1   
    15     6     8 ar  
    16     6    17 ar  
    17     7    11 ar  
    18     7    12 ar  
    19     8     9 ar  
    20     8    34 1   
    21     9    15 ar  
    22     9    35 1   
    23    10    29 ar  
    24    10    36 1   
    25    11    21 ar  
    26    11    37 1   
    27    12    22 ar  
    28    12    38 1   
    29    13    14 ar  
    30    13    28 ar  
    31    13    39 1   
    32    14    29 ar  
    33    14    40 1   
    34    15    16 ar  
    35    15    49 1   
    36    16    17 ar  
    37    16    41 1   
    38    17    42 1   
    39    18    19 2   
    40    18    25 1   
    41    21    23 ar  
    42    21    43 1   
    43    22    23 ar  
    44    22    44 1   
    45    24    25 2   
    46    24    45 1   
    47    27    28 1   
    48    27    46 1   
    49    27    47 1   
    50    29    48 1   
    51    30    50 1   
    52    31    50 1   
    53    32    50 1   
@<TRIPOS>SUBSTRUCTURE
     1 F4C         1 TEMP              0 ****  ****    0 ROOT
