@<TRIPOS>MOLECULE
F4C
   50    53     1     0     0
SMALL
No Charge or Current Charge


@<TRIPOS>ATOM
      1 N1          -1.8310    -0.8330     0.1420 n          1 F4C      -0.026000
      2 N3           1.8680     1.2880     0.7980 ns         1 F4C      -0.492900
      3 C4          -2.9950     1.1680     0.1660 cc         1 F4C       0.384200
      4 C6           0.7020     2.0000     0.7100 c          1 F4C       0.620300
      5 C7           4.9040     0.3310    -0.2180 ca         1 F4C      -0.175300
      6 C8          -2.0090    -2.2490    -0.0410 ca         1 F4C       0.021600
      7 C10         -4.2930     1.8950     0.0650 ca         1 F4C      -0.074900
      8 C13         -2.9110    -2.9650     0.7770 ca         1 F4C      -0.058000
      9 C15         -3.0900    -4.3490     0.5960 ca         1 F4C      -0.148500
     10 C17          5.8970    -0.6750    -0.1130 ca         1 F4C      -0.067000
     11 C20         -5.5100     1.1950    -0.1530 ca         1 F4C      -0.142000
     12 C21         -4.4180     3.3060     0.1750 ca         1 F4C      -0.142000
     13 C22          4.6450     0.2400     2.2180 ca         1 F4C      -0.104000
     14 C24          5.6260    -0.7580     2.2990 ca         1 F4C      -0.081000
     15 C14         -2.3730    -5.0210    -0.4040 ca         1 F4C       0.185000
     16 C16         -1.4770    -4.3210    -1.2260 ca         1 F4C      -0.148500
     17 C12         -1.2960    -2.9370    -1.0460 ca         1 F4C      -0.058000
     18 C2          -0.5400    -0.2750     0.3570 c          1 F4C       0.550200
     19 O1           0.4650    -0.9730     0.4350 o          1 F4C      -0.540000
     20 N2          -3.0540    -0.1590     0.0390 nd         1 F4C      -0.400300
     21 C18         -6.7270     1.8880    -0.2470 ca         1 F4C       0.333900
     22 C19         -5.6790     3.9180     0.0680 ca         1 F4C       0.333900
     23 N4          -6.8220     3.2300    -0.1400 nb         1 F4C      -0.654000
     24 C3          -1.7540     1.8750     0.3870 cc         1 F4C      -0.157600
     25 C1          -0.5410     1.2040     0.4840 cd         1 F4C      -0.249400
     26 O2           0.7020     3.2190     0.8110 o          1 F4C      -0.615100
     27 C11          3.1930     1.8730     0.9790 c3         1 F4C       0.148300
     28 C9           4.2770     0.7950     0.9750 ca         1 F4C      -0.058300
     29 C23          6.2530    -1.2130     1.1330 ca         1 F4C      -0.107000
     30 F1           5.1650     0.2580    -2.6210 f          1 F4C      -0.112000
     31 F2           3.2160     0.8060    -1.8650 f          1 F4C      -0.112000
     32 F3           4.8790     2.2030    -1.7170 f          1 F4C      -0.112000
     33 HN3          1.7900     0.2800     0.7010 hn         1 F4C       0.358500
     34 H13         -3.4680    -2.4480     1.5550 ha         1 F4C       0.132500
     35 H15         -3.7830    -4.8980     1.2280 ha         1 F4C       0.139500
     36 H17          6.4050    -1.0520    -0.9980 ha         1 F4C       0.133000
     37 H20         -5.5360     0.1130    -0.2530 ha         1 F4C       0.134000
     38 H21         -3.5710     3.9590     0.3420 ha         1 F4C       0.134000
     39 H22          4.1640     0.5830     3.1310 ha         1 F4C       0.123000
     40 H24          5.9010    -1.1770     3.2650 ha         1 F4C       0.122000
     41 H16         -0.9270    -4.8480    -2.0010 ha         1 F4C       0.139500
     42 H12         -0.6050    -2.3980    -1.6910 ha         1 F4C       0.132500
     43 H18         -7.6590     1.3490    -0.4150 h4         1 F4C       0.023600
     44 H19         -5.7760     4.9990     0.1530 h4         1 F4C       0.023600
     45 H3          -1.7710     2.9530     0.4790 ha         1 F4C       0.229000
     46 H11          3.3710     2.6160     0.1930 h1         1 F4C       0.065200
     47 H11A         3.2100     2.4090     1.9380 h1         1 F4C       0.065200
     48 H23          7.0160    -1.9860     1.1930 ha         1 F4C       0.123000
     49 F4          -2.5460    -6.3490    -0.5780 f          1 F4C      -0.172000
     50 C5           4.5400     0.8990    -1.6070 c3         1 F4C       0.355300
@<TRIPOS>BOND
     1     1     6 1   
     2     1    18 1   
     3     1    20 1   
     4     2     4 1   
     5     2    27 1   
     6     2    33 1   
     7     3     7 1   
     8     3    20 2   
     9     3    24 1   
    10     4    25 1   
    11     4    26 2   
    12     5    10 ar  
    13     5    28 ar  
    14     5    50 1   
    15     6     8 ar  
    16     6    17 ar  
    17     7    11 ar  
    18     7    12 ar  
    19     8     9 ar  
    20     8    34 1   
    21     9    15 ar  
    22     9    35 1   
    23    10    29 ar  
    24    10    36 1   
    25    11    21 ar  
    26    11    37 1   
    27    12    22 ar  
    28    12    38 1   
    29    13    14 ar  
    30    13    28 ar  
    31    13    39 1   
    32    14    29 ar  
    33    14    40 1   
    34    15    16 ar  
    35    15    49 1   
    36    16    17 ar  
    37    16    41 1   
    38    17    42 1   
    39    18    19 2   
    40    18    25 1   
    41    21    23 ar  
    42    21    43 1   
    43    22    23 ar  
    44    22    44 1   
    45    24    25 2   
    46    24    45 1   
    47    27    28 1   
    48    27    46 1   
    49    27    47 1   
    50    29    48 1   
    51    30    50 1   
    52    31    50 1   
    53    32    50 1   
@<TRIPOS>SUBSTRUCTURE
     1 F4C         1 TEMP              0 ****  ****    0 ROOT
