@<TRIPOS>MOLECULE
F4D
   58    61     1     0     0
SMALL
No Charge or Current Charge


@<TRIPOS>ATOM
      1 O4          -5.0550     1.3920     0.1710 o          1 F4D      -0.530500
      2 S1          -4.4740     0.1650     0.7200 sy         1 F4D       1.147600
      3 O3          -5.2600    -0.8220     1.4610 o          1 F4D      -0.530500
      4 C18         -3.4560    -0.6540    -0.5090 ca         1 F4D      -0.325500
      5 C23         -3.1490    -2.0250    -0.3720 ca         1 F4D       0.017500
      6 C22         -2.3440    -2.6590    -1.3330 ca         1 F4D      -0.178000
      7 C21         -1.8450    -1.9290    -2.4200 ca         1 F4D       0.228000
      8 F1          -1.0680    -2.5420    -3.3390 f          1 F4D      -0.168000
      9 C20         -2.1400    -0.5650    -2.5560 ca         1 F4D      -0.178000
     10 C19         -2.9470     0.0780    -1.6020 ca         1 F4D       0.017500
     11 N2          -3.3710     0.7010     1.8650 nu         1 F4D      -0.850100
     12 C1          -2.2240     1.4910     1.6100 ca         1 F4D       0.124000
     13 C2          -0.8950     1.0070     1.8170 ca         1 F4D       0.610300
     14 O1          -0.7390    -0.2790     2.2820 os         1 F4D      -0.377400
     15 C6          -0.0370    -1.2480     1.5960 ca         1 F4D       0.130100
     16 C12          0.3220    -2.4160     2.2820 ca         1 F4D      -0.128000
     17 C11          1.0160    -3.4450     1.6210 ca         1 F4D      -0.060000
     18 C10          1.3770    -3.3160     0.2600 ca         1 F4D      -0.141900
     19 C25          2.0850    -4.4350    -0.4440 ce         1 F4D       0.663800
     20 N6           2.1210    -5.6240    -0.0030 n2         1 F4D      -0.832100
     21 N5           2.8180    -4.1380    -1.5380 nv         1 F4D      -1.082200
     22 C9           0.9830    -2.1460    -0.4320 ca         1 F4D      -0.060000
     23 C8           0.2830    -1.1210     0.2290 ca         1 F4D      -0.128000
     24 C5          -2.3580     2.8030     1.1250 ca         1 F4D       0.006000
     25 C4          -1.1970     3.5520     0.8750 ca         1 F4D      -0.204000
     26 C3           0.0620     2.9840     1.1080 ca         1 F4D       0.622300
     27 N1           0.2180     1.7370     1.5880 nb         1 F4D      -0.798000
     28 O2           1.1720     3.7530     0.8590 os         1 F4D      -0.360400
     29 C7           2.3550     3.2270     0.3920 ca         1 F4D       0.131100
     30 C17          3.5640     3.6970     0.9250 ca         1 F4D      -0.116500
     31 C16          4.7890     3.1920     0.4540 ca         1 F4D      -0.065500
     32 C15          4.8250     2.2240    -0.5770 ca         1 F4D      -0.147900
     33 C24          6.1380     1.6690    -1.0460 ce         1 F4D       0.645800
     34 N4           6.1950     1.1280    -2.2840 nv         1 F4D      -1.073200
     35 N3           7.2140     1.7740    -0.3830 n2         1 F4D      -0.810100
     36 C14          3.5970     1.7520    -1.1010 ca         1 F4D      -0.065500
     37 C13          2.3730     2.2590    -0.6290 ca         1 F4D      -0.116500
     38 H1          -3.5280    -2.6000     0.4720 ha         1 F4D       0.140000
     39 H2          -2.1030    -3.7130    -1.2320 ha         1 F4D       0.139000
     40 H3          -1.7450    -0.0080    -3.4010 ha         1 F4D       0.139000
     41 H4          -3.1710     1.1380    -1.7150 ha         1 F4D       0.140000
     42 H5          -3.1920    -0.1450     2.3960 hn         1 F4D       0.502000
     43 H6           0.0590    -2.5280     3.3300 ha         1 F4D       0.127000
     44 H7           1.2820    -4.3430     2.1760 ha         1 F4D       0.131500
     45 H8           2.4800    -6.2280    -0.7510 hn         1 F4D       0.370400
     46 H9           3.0220    -3.1530    -1.6580 hn         1 F4D       0.466500
     47 H10          3.5910    -4.7610    -1.7390 hn         1 F4D       0.466500
     48 H11          1.1990    -2.0290    -1.4910 ha         1 F4D       0.131500
     49 H12         -0.0160    -0.2430    -0.3350 ha         1 F4D       0.127000
     50 H13         -3.3410     3.2360     0.9560 ha         1 F4D       0.155000
     51 H14         -1.2640     4.5690     0.5010 ha         1 F4D       0.152000
     52 H15          3.5520     4.4500     1.7090 ha         1 F4D       0.129000
     53 H16          5.7140     3.5650     0.8900 ha         1 F4D       0.128500
     54 H17          5.4080     1.3470    -2.8830 hn         1 F4D       0.453500
     55 H18          7.1000     1.1400    -2.7400 hn         1 F4D       0.453500
     56 H19          7.9140     1.1610    -0.8140 hn         1 F4D       0.375400
     57 H20          3.5790     0.9840    -1.8710 ha         1 F4D       0.128500
     58 H21          1.4420     1.8950    -1.0550 ha         1 F4D       0.129000
@<TRIPOS>BOND
     1     1     2 2   
     2     2     3 2   
     3     2     4 1   
     4     2    11 1   
     5     4     5 ar  
     6     4    10 ar  
     7     5     6 ar  
     8     5    38 1   
     9     6     7 ar  
    10     6    39 1   
    11     7     8 1   
    12     7     9 ar  
    13     9    10 ar  
    14     9    40 1   
    15    10    41 1   
    16    11    12 1   
    17    11    42 1   
    18    12    13 ar  
    19    12    24 ar  
    20    13    14 1   
    21    13    27 ar  
    22    14    15 1   
    23    15    16 ar  
    24    15    23 ar  
    25    16    17 ar  
    26    16    43 1   
    27    17    18 ar  
    28    17    44 1   
    29    18    19 1   
    30    18    22 ar  
    31    19    20 2   
    32    19    21 1   
    33    20    45 1   
    34    21    46 1   
    35    21    47 1   
    36    22    23 ar  
    37    22    48 1   
    38    23    49 1   
    39    24    25 ar  
    40    24    50 1   
    41    25    26 ar  
    42    25    51 1   
    43    26    27 ar  
    44    26    28 1   
    45    28    29 1   
    46    29    30 ar  
    47    29    37 ar  
    48    30    31 ar  
    49    30    52 1   
    50    31    32 ar  
    51    31    53 1   
    52    32    33 1   
    53    32    36 ar  
    54    33    34 1   
    55    33    35 2   
    56    34    54 1   
    57    34    55 1   
    58    35    56 1   
    59    36    37 ar  
    60    36    57 1   
    61    37    58 1   
@<TRIPOS>SUBSTRUCTURE
     1 F4D         1 TEMP              0 ****  ****    0 ROOT
