@<TRIPOS>MOLECULE
F4D
   58    61     1     0     0
SMALL
abcg2


@<TRIPOS>ATOM
      1 O4          -4.9560     1.6650     0.1600 o          1 F4D      -0.530500
      2 S1          -4.5310     0.3910     0.7110 sy         1 F4D       1.147600
      3 O3          -5.5030    -0.5410     1.2510 o          1 F4D      -0.530500
      4 C18         -3.5640    -0.4330    -0.5190 ca         1 F4D      -0.325500
      5 C23         -3.2810    -1.7850    -0.3560 ca         1 F4D       0.017500
      6 C22         -2.5010    -2.4350    -1.2950 ca         1 F4D      -0.178000
      7 C21         -2.0270    -1.7140    -2.3770 ca         1 F4D       0.228000
      8 F1          -1.2670    -2.3400    -3.2780 f          1 F4D      -0.168000
      9 C20         -2.3000    -0.3710    -2.5530 ca         1 F4D      -0.178000
     10 C19         -3.0780     0.2780    -1.6070 ca         1 F4D       0.017500
     11 N2          -3.4950     0.7340     1.9690 nu         1 F4D      -0.850100
     12 C1          -2.3520     1.5100     1.6770 ca         1 F4D       0.124000
     13 C2          -1.1040     0.9280     1.4470 ca         1 F4D       0.610300
     14 O1          -1.0080    -0.4060     1.5760 os         1 F4D      -0.377400
     15 C6           0.0740    -1.0850     1.0670 ca         1 F4D       0.130100
     16 C12          0.6780    -2.0230     1.8890 ca         1 F4D      -0.128000
     17 C11          1.7130    -2.7980     1.3930 ca         1 F4D      -0.060000
     18 C10          2.1680    -2.6350     0.0870 ca         1 F4D      -0.141900
     19 C25          3.2610    -3.5060    -0.4240 ce         1 F4D       0.663800
     20 N6           3.4120    -4.6610     0.1040 n2         1 F4D      -0.832100
     21 N5           3.9760    -3.0030    -1.4730 nv         1 F4D      -1.082200
     22 C9           1.5480    -1.6830    -0.7190 ca         1 F4D      -0.060000
     23 C8           0.5040    -0.9110    -0.2390 ca         1 F4D      -0.128000
     24 C5          -2.4190     2.8950     1.5910 ca         1 F4D       0.006000
     25 C4          -1.3010     3.6360     1.2540 ca         1 F4D      -0.204000
     26 C3          -0.1240     2.9270     1.0400 ca         1 F4D       0.622300
     27 N1          -0.0310     1.6230     1.1650 nb         1 F4D      -0.798000
     28 O2           0.9870     3.6110     0.7010 os         1 F4D      -0.360400
     29 C7           2.0790     2.8760     0.2920 ca         1 F4D       0.131100
     30 C17          3.2110     2.8620     1.0880 ca         1 F4D      -0.116500
     31 C16          4.3050     2.1090     0.6970 ca         1 F4D      -0.065500
     32 C15          4.2770     1.3570    -0.4760 ca         1 F4D      -0.147900
     33 C24          5.4400     0.4910    -0.8150 ce         1 F4D       0.645800
     34 N4           5.3800    -0.1430    -2.0340 nv         1 F4D      -1.073200
     35 N3           6.3590     0.3280     0.0530 n2         1 F4D      -0.810100
     36 C14          3.1350     1.4130    -1.2730 ca         1 F4D      -0.065500
     37 C13          2.0430     2.1760    -0.9010 ca         1 F4D      -0.116500
     38 H1          -3.6590    -2.3380     0.4920 ha         1 F4D       0.140000
     39 H2          -2.2640    -3.4850    -1.1860 ha         1 F4D       0.139000
     40 H3          -1.9110     0.1620    -3.4100 ha         1 F4D       0.139000
     41 H4          -3.3030     1.3280    -1.7350 ha         1 F4D       0.140000
     42 H5          -3.3450    -0.0680     2.5720 hn         1 F4D       0.502000
     43 H6           0.3370    -2.1510     2.9080 ha         1 F4D       0.127000
     44 H7           2.1800    -3.5350     2.0320 ha         1 F4D       0.131500
     45 H8           4.2020    -5.1510    -0.3080 hn         1 F4D       0.370400
     46 H9           4.1190    -2.0050    -1.5510 hn         1 F4D       0.466500
     47 H10          4.7770    -3.5370    -1.7710 hn         1 F4D       0.466500
     48 H11          1.8530    -1.5500    -1.7480 ha         1 F4D       0.131500
     49 H12          0.0310    -0.1880    -0.8880 ha         1 F4D       0.127000
     50 H13         -3.3600     3.3930     1.7800 ha         1 F4D       0.155000
     51 H14         -1.3390     4.7120     1.1620 ha         1 F4D       0.152000
     52 H15          3.2340     3.4240     2.0130 ha         1 F4D       0.129000
     53 H16          5.1880     2.0840     1.3200 ha         1 F4D       0.128500
     54 H17          4.9340     0.3450    -2.7950 hn         1 F4D       0.453500
     55 H18          6.2330    -0.5910    -2.3330 hn         1 F4D       0.453500
     56 H19          7.0980    -0.2750    -0.2970 hn         1 F4D       0.375400
     57 H20          3.0560     0.8400    -2.1870 ha         1 F4D       0.128500
     58 H21          1.1620     2.2000    -1.5290 ha         1 F4D       0.129000
@<TRIPOS>BOND
     1     1     2 2   
     2     2     3 2   
     3     2     4 1   
     4     2    11 1   
     5     4     5 ar  
     6     4    10 ar  
     7     5     6 ar  
     8     5    38 1   
     9     6     7 ar  
    10     6    39 1   
    11     7     8 1   
    12     7     9 ar  
    13     9    10 ar  
    14     9    40 1   
    15    10    41 1   
    16    11    12 1   
    17    11    42 1   
    18    12    13 ar  
    19    12    24 ar  
    20    13    14 1   
    21    13    27 ar  
    22    14    15 1   
    23    15    16 ar  
    24    15    23 ar  
    25    16    17 ar  
    26    16    43 1   
    27    17    18 ar  
    28    17    44 1   
    29    18    19 1   
    30    18    22 ar  
    31    19    20 2   
    32    19    21 1   
    33    20    45 1   
    34    21    46 1   
    35    21    47 1   
    36    22    23 ar  
    37    22    48 1   
    38    23    49 1   
    39    24    25 ar  
    40    24    50 1   
    41    25    26 ar  
    42    25    51 1   
    43    26    27 ar  
    44    26    28 1   
    45    28    29 1   
    46    29    30 ar  
    47    29    37 ar  
    48    30    31 ar  
    49    30    52 1   
    50    31    32 ar  
    51    31    53 1   
    52    32    33 1   
    53    32    36 ar  
    54    33    34 1   
    55    33    35 2   
    56    34    54 1   
    57    34    55 1   
    58    35    56 1   
    59    36    37 ar  
    60    36    57 1   
    61    37    58 1   
@<TRIPOS>SUBSTRUCTURE
     1 F4D         1 TEMP              0 ****  ****    0 ROOT
