@<TRIPOS>MOLECULE
F4E
   19    20     1     0     0
SMALL
No Charge or Current Charge


@<TRIPOS>ATOM
      1 C10         -2.7900     1.3190     0.0140 cc         1 F4E      -0.179000
      2 N12         -0.1840     1.0530     0.0100 na         1 F4E      -0.068000
      3 C01          4.1510     0.6850     0.0050 c3         1 F4E       0.156900
      4 C03          1.9960    -0.3980    -0.0100 c          1 F4E       0.631700
      5 C05          0.5360    -0.1770    -0.0070 cc         1 F4E      -0.215600
      6 C06         -0.4060    -1.2070    -0.0210 cd         1 F4E      -0.070000
      7 C07         -1.6560    -0.5750    -0.0120 cd         1 F4E       0.003000
      8 C09         -3.6430     0.2210    -0.0020 cd         1 F4E       0.164900
      9 C11         -1.5280     0.7260     0.0060 cc         1 F4E      -0.150000
     10 O02          2.7130     0.7710     0.0060 os         1 F4E      -0.459100
     11 O04          2.5110    -1.5080    -0.0250 o          1 F4E      -0.475000
     12 O08         -2.9530    -1.0000    -0.0180 os         1 F4E      -0.220000
     13 H1          -3.0360     2.3760     0.0280 ha         1 F4E       0.148000
     14 H2           0.2170     1.9870     0.0230 hn         1 F4E       0.369000
     15 H3           4.5120     0.1420     0.8890 h1         1 F4E       0.050033
     16 H4           4.5120     0.1670    -0.8930 h1         1 F4E       0.050033
     17 H5           4.5940     1.6890     0.0190 h1         1 F4E       0.050033
     18 H6          -0.2140    -2.2760    -0.0350 ha         1 F4E       0.163000
     19 H7          -4.7250     0.1770    -0.0020 h4         1 F4E       0.052100
@<TRIPOS>BOND
     1     1     8 2   
     2     1     9 1   
     3     1    13 1   
     4     2     5 1   
     5     2     9 1   
     6     2    14 1   
     7     3    10 1   
     8     3    15 1   
     9     3    16 1   
    10     3    17 1   
    11     4     5 1   
    12     4    10 1   
    13     4    11 2   
    14     5     6 2   
    15     6     7 1   
    16     6    18 1   
    17     7     9 2   
    18     7    12 1   
    19     8    12 1   
    20     8    19 1   
@<TRIPOS>SUBSTRUCTURE
     1 F4E         1 TEMP              0 ****  ****    0 ROOT
