@<TRIPOS>MOLECULE
F4E
   19    20     1     0     0
SMALL
bcc


@<TRIPOS>ATOM
      1 C10         -2.7170     1.3500     0.0130 cc         1 F4E      -0.262300
      2 N12         -0.0990     0.9550     0.0090 na         1 F4E      -0.119100
      3 C01          4.0360     0.7230     0.0060 c3         1 F4E       0.133700
      4 C03          1.9790    -0.4270    -0.0110 c          1 F4E       0.680700
      5 C05          0.5340    -0.2690    -0.0070 cc         1 F4E      -0.164900
      6 C06         -0.4060    -1.2930    -0.0210 cd         1 F4E      -0.153300
      7 C07         -1.6340    -0.6270    -0.0110 cd         1 F4E       0.178000
      8 C09         -3.5800     0.3010    -0.0010 cd         1 F4E       0.274600
      9 C11         -1.4300     0.7370     0.0070 cc         1 F4E      -0.164600
     10 O02          2.6090     0.7420     0.0070 os         1 F4E      -0.435900
     11 O04          2.5390    -1.4990    -0.0290 o          1 F4E      -0.524000
     12 O08         -2.9540    -0.9080    -0.0160 os         1 F4E      -0.308800
     13 H1          -2.9840     2.3930     0.0280 ha         1 F4E       0.166000
     14 H2           0.3620     1.8500     0.0210 hn         1 F4E       0.318700
     15 H3           4.4280     0.2160     0.8880 h1         1 F4E       0.050033
     16 H4           4.4270     0.2400    -0.8890 h1         1 F4E       0.050033
     17 H5           4.3480     1.7630     0.0200 h1         1 F4E       0.050033
     18 H6          -0.1940    -2.3490    -0.0350 ha         1 F4E       0.181000
     19 H7          -4.6580     0.2740    -0.0030 h4         1 F4E       0.052100
@<TRIPOS>BOND
     1     1     8 2   
     2     1     9 1   
     3     1    13 1   
     4     2     5 1   
     5     2     9 1   
     6     2    14 1   
     7     3    10 1   
     8     3    15 1   
     9     3    16 1   
    10     3    17 1   
    11     4     5 1   
    12     4    10 1   
    13     4    11 2   
    14     5     6 2   
    15     6     7 1   
    16     6    18 1   
    17     7     9 2   
    18     7    12 1   
    19     8    12 1   
    20     8    19 1   
@<TRIPOS>SUBSTRUCTURE
     1 F4E         1 TEMP              0 ****  ****    0 ROOT
