@<TRIPOS>MOLECULE
F4F
   41    42     1     0     0
SMALL
No Charge or Current Charge


@<TRIPOS>ATOM
      1 C11        -14.9700     6.5060   -24.4740 c6         1 F4F      -0.193700
      2 C12        -13.7040     7.0710   -23.7630 c6         1 F4F       0.203000
      3 C13        -12.8670     8.0510   -24.6450 c3         1 F4F      -0.074100
      4 C15        -12.8310     5.8670   -23.3050 c6         1 F4F      -0.108400
      5 C16        -12.4990     4.8910   -24.4650 c6         1 F4F      -0.070400
      6 C17        -13.7840     4.3440   -25.1680 c6         1 F4F      -0.047700
      7 C18        -13.4510     3.2770   -26.2840 c3         1 F4F      -0.059700
      8 C19        -12.7370     2.0180   -25.7340 c3         1 F4F      -0.084100
      9 C20        -12.6760     3.8370   -27.5050 c3         1 F4F      -0.084100
     10 C02        -16.1090     7.5190   -24.7470 c          1 F4F       0.683100
     11 C04        -17.7070     5.6650   -24.6690 c3         1 F4F       0.204800
     12 C05        -17.2540     5.0770   -26.0060 ce         1 F4F      -0.204400
     13 C06        -18.3500     4.5260   -26.9050 c          1 F4F       0.715200
     14 C09        -15.9430     5.0460   -26.4030 c2         1 F4F      -0.248200
     15 C10        -14.6880     5.5340   -25.6600 c6         1 F4F      -0.004500
     16 O01        -15.8990     8.6120   -25.2550 o          1 F4F      -0.526000
     17 O03        -17.4020     7.0720   -24.6020 os         1 F4F      -0.445100
     18 O07        -18.0350     4.0550   -27.9890 o          1 F4F      -0.716500
     19 O08        -19.5120     4.5570   -26.5280 o          1 F4F      -0.716500
     20 O14        -14.1140     7.7880   -22.5990 oh         1 F4F      -0.655000
     21 H1         -15.3880     5.8470   -23.7090 hc         1 F4F       0.057700
     22 H2         -11.9360     8.3370   -24.1410 hc         1 F4F       0.045033
     23 H3         -12.5870     7.6100   -25.6070 hc         1 F4F       0.045033
     24 H4         -13.4070     8.9800   -24.8560 hc         1 F4F       0.045033
     25 H5         -13.3520     5.3090   -22.5140 hc         1 F4F       0.035200
     26 H6         -11.8960     6.2250   -22.8520 hc         1 F4F       0.035200
     27 H7         -11.9090     4.0630   -24.0520 hc         1 F4F       0.036200
     28 H8         -11.8490     5.3920   -25.1930 hc         1 F4F       0.036200
     29 H9         -14.3620     3.7910   -24.4130 hc         1 F4F       0.044700
     30 H10        -14.4050     2.9000   -26.6730 hc         1 F4F       0.077700
     31 H11        -13.2680     1.6180   -24.8620 hc         1 F4F       0.026700
     32 H12        -12.7050     1.2310   -26.4970 hc         1 F4F       0.026700
     33 H13        -11.7040     2.2380   -25.4400 hc         1 F4F       0.026700
     34 H14        -13.2180     4.6610   -27.9810 hc         1 F4F       0.026700
     35 H15        -11.6830     4.1980   -27.2150 hc         1 F4F       0.026700
     36 H16        -12.5400     3.0550   -28.2620 hc         1 F4F       0.026700
     37 H17        -18.7870     5.5400   -24.5300 h1         1 F4F       0.062700
     38 H18        -17.2610     5.0990   -23.8420 h1         1 F4F       0.062700
     39 H19        -15.7150     4.6380   -27.3890 ha         1 F4F       0.202000
     40 H20        -14.1150     6.1060   -26.4020 hc         1 F4F       0.053700
     41 H22        -13.2980     7.9870   -22.0930 ho         1 F4F       0.431000
@<TRIPOS>BOND
     1     1     2 1   
     2     1    10 1   
     3     1    15 1   
     4     1    21 1   
     5     2     3 1   
     6     2     4 1   
     7     2    20 1   
     8     3    22 1   
     9     3    23 1   
    10     3    24 1   
    11     4     5 1   
    12     4    25 1   
    13     4    26 1   
    14     5     6 1   
    15     5    27 1   
    16     5    28 1   
    17     6     7 1   
    18     6    15 1   
    19     6    29 1   
    20     7     8 1   
    21     7     9 1   
    22     7    30 1   
    23     8    31 1   
    24     8    32 1   
    25     8    33 1   
    26     9    34 1   
    27     9    35 1   
    28     9    36 1   
    29    10    16 2   
    30    10    17 1   
    31    11    12 1   
    32    11    17 1   
    33    11    37 1   
    34    11    38 1   
    35    12    13 1   
    36    12    14 2   
    37    13    18 1   
    38    13    19 1   
    39    14    15 1   
    40    14    39 1   
    41    15    40 1   
    42    20    41 1   
@<TRIPOS>SUBSTRUCTURE
     1 F4F         1 TEMP              0 ****  ****    0 ROOT
