@<TRIPOS>MOLECULE
F4F
   41    42     1     0     0
SMALL
bcc


@<TRIPOS>ATOM
      1 C11        -14.9480     6.4760   -24.4360 c6         1 F4F      -0.193700
      2 C12        -13.6580     7.0560   -23.8130 c6         1 F4F       0.179800
      3 C13        -12.8280     7.9390   -24.7400 c3         1 F4F      -0.074100
      4 C15        -12.8220     5.8590   -23.3550 c6         1 F4F      -0.108400
      5 C16        -12.5100     4.8900   -24.4880 c6         1 F4F      -0.070400
      6 C17        -13.7760     4.3590   -25.1610 c6         1 F4F      -0.047700
      7 C18        -13.4800     3.3290   -26.2710 c3         1 F4F      -0.059700
      8 C19        -12.6620     2.1530   -25.7420 c3         1 F4F      -0.084100
      9 C20        -12.8150     3.9250   -27.5090 c3         1 F4F      -0.084100
     10 C02        -15.9700     7.5320   -24.8030 c          1 F4F       0.758600
     11 C04        -17.6340     5.7970   -24.7060 c3         1 F4F       0.181600
     12 C05        -17.1790     5.0560   -25.9320 ce         1 F4F      -0.204400
     13 C06        -18.2530     4.3790   -26.7910 c          1 F4F       0.925800
     14 C09        -15.9020     5.0130   -26.3140 c2         1 F4F      -0.198200
     15 C10        -14.6730     5.5350   -25.6290 c6         1 F4F      -0.004500
     16 O01        -15.7180     8.6660   -25.1200 o          1 F4F      -0.601500
     17 O03        -17.2540     7.1790   -24.7590 os         1 F4F      -0.421900
     18 O07        -17.8820     3.8350   -27.8480 o          1 F4F      -0.821800
     19 O08        -19.4170     4.4250   -26.3440 o          1 F4F      -0.821800
     20 O14        -13.9990     7.8680   -22.7030 oh         1 F4F      -0.592800
     21 H1         -15.3870     5.8570   -23.6440 hc         1 F4F       0.057700
     22 H2         -11.8700     8.1620   -24.2670 hc         1 F4F       0.045033
     23 H3         -12.6110     7.4510   -25.6890 hc         1 F4F       0.045033
     24 H4         -13.3270     8.8790   -24.9590 hc         1 F4F       0.045033
     25 H5         -13.3680     5.3190   -22.5710 hc         1 F4F       0.035200
     26 H6         -11.8950     6.2190   -22.9000 hc         1 F4F       0.035200
     27 H7         -11.9350     4.0560   -24.0810 hc         1 F4F       0.036200
     28 H8         -11.8600     5.3730   -25.2230 hc         1 F4F       0.036200
     29 H9         -14.3510     3.8230   -24.3920 hc         1 F4F       0.044700
     30 H10        -14.4440     2.9140   -26.5840 hc         1 F4F       0.077700
     31 H11        -13.0890     1.7480   -24.8230 hc         1 F4F       0.026700
     32 H12        -12.6370     1.3470   -26.4770 hc         1 F4F       0.026700
     33 H13        -11.6270     2.4310   -25.5340 hc         1 F4F       0.026700
     34 H14        -13.4280     4.6940   -27.9820 hc         1 F4F       0.026700
     35 H15        -11.8470     4.3710   -27.2730 hc         1 F4F       0.026700
     36 H16        -12.6410     3.1490   -28.2560 hc         1 F4F       0.026700
     37 H17        -18.7190     5.8060   -24.6680 h1         1 F4F       0.062700
     38 H18        -17.2840     5.3350   -23.7790 h1         1 F4F       0.062700
     39 H19        -15.7100     4.5200   -27.2600 ha         1 F4F       0.152000
     40 H20        -14.1170     6.1060   -26.3820 hc         1 F4F       0.053700
     41 H22        -14.3910     7.3080   -22.0230 ho         1 F4F       0.392000
@<TRIPOS>BOND
     1     1     2 1   
     2     1    10 1   
     3     1    15 1   
     4     1    21 1   
     5     2     3 1   
     6     2     4 1   
     7     2    20 1   
     8     3    22 1   
     9     3    23 1   
    10     3    24 1   
    11     4     5 1   
    12     4    25 1   
    13     4    26 1   
    14     5     6 1   
    15     5    27 1   
    16     5    28 1   
    17     6     7 1   
    18     6    15 1   
    19     6    29 1   
    20     7     8 1   
    21     7     9 1   
    22     7    30 1   
    23     8    31 1   
    24     8    32 1   
    25     8    33 1   
    26     9    34 1   
    27     9    35 1   
    28     9    36 1   
    29    10    16 2   
    30    10    17 1   
    31    11    12 1   
    32    11    17 1   
    33    11    37 1   
    34    11    38 1   
    35    12    13 1   
    36    12    14 2   
    37    13    18 1   
    38    13    19 1   
    39    14    15 1   
    40    14    39 1   
    41    15    40 1   
    42    20    41 1   
@<TRIPOS>SUBSTRUCTURE
     1 F4F         1 TEMP              0 ****  ****    0 ROOT
