@<TRIPOS>MOLECULE
F4G
   28    30     1     0     0
SMALL
No Charge or Current Charge


@<TRIPOS>ATOM
      1 O17         -5.0290    -0.2000     0.0130 o          1 F4G      -0.623100
      2 C16         -3.9480     0.3620    -0.0680 c          1 F4G       0.624700
      3 N18         -3.9250     1.6910    -0.2820 nt         1 F4G      -0.595000
      4 C1          -2.6310    -0.3340     0.0530 cc         1 F4G      -0.131600
      5 C6          -2.6060    -1.6980     0.2760 cd         1 F4G      -0.033000
      6 C5          -1.3450    -2.3740     0.4740 cd         1 F4G      -0.156000
      7 C4          -0.1140    -1.7280     0.4070 cc         1 F4G      -0.090000
      8 N3          -0.1920    -0.3890     0.0140 na         1 F4G       0.139100
      9 C9           0.8910     0.4460     0.0070 cc         1 F4G      -0.135300
     10 C8           0.3410     1.6990    -0.1570 cd         1 F4G       0.003600
     11 N7          -1.0510     1.6150    -0.1790 nd         1 F4G      -0.330600
     12 C2          -1.3560     0.3300    -0.0330 cc         1 F4G      -0.048000
     13 C10          2.3320     0.1790    -0.0100 ca         1 F4G      -0.073800
     14 C15          2.8630    -0.9350    -0.6890 ca         1 F4G      -0.072000
     15 C14          4.2540    -1.1290    -0.6770 ca         1 F4G      -0.162000
     16 C13          5.0710    -0.2100     0.0010 ca         1 F4G       0.341900
     17 N12          4.5790     0.8710     0.6480 nb         1 F4G      -0.660000
     18 C11          3.2360     1.0550     0.6340 ca         1 F4G       0.354900
     19 H1          -4.7910     2.1980    -0.3690 hn         1 F4G       0.336000
     20 H2          -3.0320     2.1590    -0.3470 hn         1 F4G       0.336000
     21 H3          -3.5310    -2.2640     0.3500 ha         1 F4G       0.153000
     22 H4          -1.3590    -3.4340     0.7090 ha         1 F4G       0.139000
     23 H5           0.8530    -2.1740     0.5900 h4         1 F4G       0.151000
     24 H6           0.8560     2.6500    -0.2680 h4         1 F4G       0.232000
     25 H7           2.2180    -1.6250    -1.2280 ha         1 F4G       0.121000
     26 H8           4.7000    -1.9760    -1.1900 ha         1 F4G       0.127000
     27 H9           6.1530    -0.3390     0.0230 h4         1 F4G       0.023100
     28 H10          2.8710     1.9330     1.1670 h4         1 F4G       0.027100
@<TRIPOS>BOND
     1     1     2 2   
     2     2     3 1   
     3     2     4 1   
     4     3    19 1   
     5     3    20 1   
     6     4     5 2   
     7     4    12 1   
     8     5     6 1   
     9     5    21 1   
    10     6     7 2   
    11     6    22 1   
    12     7     8 1   
    13     7    23 1   
    14     8     9 1   
    15     8    12 1   
    16     9    10 2   
    17     9    13 1   
    18    10    11 1   
    19    10    24 1   
    20    11    12 2   
    21    13    14 ar  
    22    13    18 ar  
    23    14    15 ar  
    24    14    25 1   
    25    15    16 ar  
    26    15    26 1   
    27    16    17 ar  
    28    16    27 1   
    29    17    18 ar  
    30    18    28 1   
@<TRIPOS>SUBSTRUCTURE
     1 F4G         1 TEMP              0 ****  ****    0 ROOT
