@<TRIPOS>MOLECULE
F4G
   28    30     1     0     0
SMALL
bcc


@<TRIPOS>ATOM
      1 O17         -4.9310    -0.2780     0.1370 o          1 F4G      -0.623100
      2 C16         -3.8940     0.3570    -0.0160 c          1 F4G       0.691700
      3 N18         -3.8620     1.6630    -0.2950 nt         1 F4G      -0.662000
      4 C1          -2.5660    -0.3280     0.1020 cc         1 F4G      -0.131600
      5 C6          -2.5330    -1.6710     0.3570 cd         1 F4G      -0.051000
      6 C5          -1.3090    -2.3620     0.4920 cd         1 F4G      -0.174000
      7 C4          -0.1330    -1.7000     0.3580 cc         1 F4G      -0.057300
      8 N3          -0.1490    -0.3670     0.0820 na         1 F4G       0.037700
      9 C9           0.8900     0.5290    -0.0760 cc         1 F4G      -0.135300
     10 C8           0.2760     1.7390    -0.2740 cd         1 F4G       0.053600
     11 N7          -1.0710     1.6290    -0.2510 nd         1 F4G      -0.330600
     12 C2          -1.3270     0.3530    -0.0320 cc         1 F4G       0.002700
     13 C10          2.3050     0.1840    -0.0380 ca         1 F4G      -0.139100
     14 C15          2.8490    -0.8810    -0.7550 ca         1 F4G      -0.090000
     15 C14          4.2120    -1.1120    -0.6840 ca         1 F4G      -0.245300
     16 C13          4.9920    -0.2610     0.0840 ca         1 F4G       0.407200
     17 N12          4.4920     0.7650     0.7620 nb         1 F4G      -0.660000
     18 C11          3.1850     0.9710     0.7070 ca         1 F4G       0.420200
     19 H1          -4.7260     2.1690    -0.4000 hn         1 F4G       0.336000
     20 H2          -2.9830     2.1520    -0.4130 hn         1 F4G       0.336000
     21 H3          -3.4610    -2.2150     0.4650 ha         1 F4G       0.171000
     22 H4          -1.2960    -3.4200     0.7070 ha         1 F4G       0.157000
     23 H5           0.8290    -2.1760     0.4710 h4         1 F4G       0.169000
     24 H6           0.7660     2.6840    -0.4530 h4         1 F4G       0.182000
     25 H7           2.2240    -1.5080    -1.3790 ha         1 F4G       0.139000
     26 H8           4.6670    -1.9300    -1.2260 ha         1 F4G       0.145000
     27 H9           6.0630    -0.4130     0.1520 h4         1 F4G       0.023100
     28 H10          2.7980     1.8050     1.2840 h4         1 F4G       0.027100
@<TRIPOS>BOND
     1     1     2 2   
     2     2     3 1   
     3     2     4 1   
     4     3    19 1   
     5     3    20 1   
     6     4     5 2   
     7     4    12 1   
     8     5     6 1   
     9     5    21 1   
    10     6     7 2   
    11     6    22 1   
    12     7     8 1   
    13     7    23 1   
    14     8     9 1   
    15     8    12 1   
    16     9    10 2   
    17     9    13 1   
    18    10    11 1   
    19    10    24 1   
    20    11    12 2   
    21    13    14 ar  
    22    13    18 ar  
    23    14    15 ar  
    24    14    25 1   
    25    15    16 ar  
    26    15    26 1   
    27    16    17 ar  
    28    16    27 1   
    29    17    18 ar  
    30    18    28 1   
@<TRIPOS>SUBSTRUCTURE
     1 F4G         1 TEMP              0 ****  ****    0 ROOT
