@<TRIPOS>MOLECULE
F4K
   24    25     1     0     0
SMALL
bcc


@<TRIPOS>ATOM
      1 C10         -2.6480     1.0400    -0.4930 cc         1 F4K      -0.156300
      2 C13         -2.7200    -1.0340     0.3260 cc         1 F4K      -0.156300
      3 C03          2.3030    -0.0250     0.3030 ca         1 F4K      -0.096300
      4 C04          1.6060    -1.1860    -0.0170 ca         1 F4K      -0.089000
      5 C05          0.2250    -1.1850    -0.1390 ca         1 F4K      -0.147500
      6 C06         -0.4870    -0.0090     0.0750 ca         1 F4K       0.018800
      7 C07          0.1950     1.1590     0.3990 ca         1 F4K      -0.147500
      8 C08          1.5780     1.1450     0.4980 ca         1 F4K      -0.089000
      9 C11         -3.9650     0.6730    -0.4350 cd         1 F4K      -0.194000
     10 C12         -4.0110    -0.6470     0.0890 cd         1 F4K      -0.194000
     11 N09         -1.8900    -0.0030    -0.0290 na         1 F4K       0.013800
     12 O01          4.3070     0.2460    -0.9160 oh         1 F4K      -0.590800
     13 H1          -2.1890     1.9450    -0.8550 h4         1 F4K       0.164500
     14 H2          -2.3310    -1.9450     0.7490 h4         1 F4K       0.164500
     15 H3           4.1320     0.7270     1.1020 h1         1 F4K       0.025200
     16 H4           4.1470    -0.9990     0.7450 h1         1 F4K       0.025200
     17 H5           2.1470    -2.1100    -0.1840 ha         1 F4K       0.136000
     18 H6          -0.2900    -2.0960    -0.4150 ha         1 F4K       0.144000
     19 H7          -0.3480     2.0750     0.5940 ha         1 F4K       0.144000
     20 H8           2.0950     2.0620     0.7560 ha         1 F4K       0.136000
     21 H9          -4.8020     1.2800    -0.7410 ha         1 F4K       0.150000
     22 H10         -4.8910    -1.2400     0.2810 ha         1 F4K       0.150000
     23 H11          5.2680     0.2270    -0.8650 ho         1 F4K       0.403000
     24 C02          3.8020    -0.0260     0.3770 c3         1 F4K       0.186700
@<TRIPOS>BOND
     1     1     9 2   
     2     1    11 1   
     3     1    13 1   
     4     2    10 2   
     5     2    11 1   
     6     2    14 1   
     7     3     4 ar  
     8     3     8 ar  
     9     3    24 1   
    10     4     5 ar  
    11     4    17 1   
    12     5     6 ar  
    13     5    18 1   
    14     6     7 ar  
    15     6    11 1   
    16     7     8 ar  
    17     7    19 1   
    18     8    20 1   
    19     9    10 1   
    20     9    21 1   
    21    10    22 1   
    22    12    23 1   
    23    12    24 1   
    24    15    24 1   
    25    16    24 1   
@<TRIPOS>SUBSTRUCTURE
     1 F4K         1 TEMP              0 ****  ****    0 ROOT
