@<TRIPOS>MOLECULE
F4K
   24    25     1     0     0
SMALL
No Charge or Current Charge


@<TRIPOS>ATOM
      1 C10         -2.6570     1.0660    -0.5390 cc         1 F4K      -0.189000
      2 C13         -2.7320    -1.0580     0.3930 cc         1 F4K      -0.189000
      3 C03          2.3010    -0.0250     0.2630 ca         1 F4K      -0.096300
      4 C04          1.6040    -1.2010    -0.0710 ca         1 F4K      -0.071000
      5 C05          0.2010    -1.1930    -0.1650 ca         1 F4K      -0.129500
      6 C06         -0.5270    -0.0080     0.0730 ca         1 F4K       0.018800
      7 C07          0.1760     1.1680     0.4060 ca         1 F4K      -0.129500
      8 C08          1.5790     1.1600     0.5010 ca         1 F4K      -0.071000
      9 C11         -3.9630     0.6590    -0.4430 cd         1 F4K      -0.176000
     10 C12         -4.0080    -0.6370     0.1250 cd         1 F4K      -0.176000
     11 N09         -1.9250    -0.0010    -0.0210 na         1 F4K       0.115200
     12 O01          4.4090     0.2780    -0.8970 oh         1 F4K      -0.653000
     13 H1          -2.2100     1.9750    -0.9200 h4         1 F4K       0.146500
     14 H2          -2.3500    -1.9720     0.8310 h4         1 F4K       0.146500
     15 H3           4.1360     0.6970     1.1270 h1         1 F4K       0.025200
     16 H4           4.1540    -1.0240     0.7110 h1         1 F4K       0.025200
     17 H5           2.1510    -2.1220    -0.2620 ha         1 F4K       0.118000
     18 H6          -0.3160    -2.1110    -0.4350 ha         1 F4K       0.126000
     19 H7          -0.3620     2.0930     0.6040 ha         1 F4K       0.126000
     20 H8           2.1060     2.0760     0.7600 ha         1 F4K       0.118000
     21 H9          -4.8250     1.2400    -0.7580 ha         1 F4K       0.132000
     22 H10         -4.9110    -1.2080     0.3220 ha         1 F4K       0.132000
     23 H11          5.3830     0.2570    -0.7680 ho         1 F4K       0.442000
     24 C02          3.8200    -0.0340     0.3700 c3         1 F4K       0.209900
@<TRIPOS>BOND
     1     1     9 2   
     2     1    11 1   
     3     1    13 1   
     4     2    10 2   
     5     2    11 1   
     6     2    14 1   
     7     3     4 ar  
     8     3     8 ar  
     9     3    24 1   
    10     4     5 ar  
    11     4    17 1   
    12     5     6 ar  
    13     5    18 1   
    14     6     7 ar  
    15     6    11 1   
    16     7     8 ar  
    17     7    19 1   
    18     8    20 1   
    19     9    10 1   
    20     9    21 1   
    21    10    22 1   
    22    12    23 1   
    23    12    24 1   
    24    15    24 1   
    25    16    24 1   
@<TRIPOS>SUBSTRUCTURE
     1 F4K         1 TEMP              0 ****  ****    0 ROOT
