@<TRIPOS>MOLECULE
F4L
   48    50     1     0     0
SMALL
No Charge or Current Charge


@<TRIPOS>ATOM
      1 C10        -20.9160     5.6150    33.8140 c3         1 F4L      -0.006200
      2 C15        -22.3460     5.8660    36.0100 ca         1 F4L      -0.104800
      3 C17        -22.3900     4.7220    38.1310 ca         1 F4L      -0.136000
      4 C20        -19.1040     7.2770    34.6440 c          1 F4L       0.608100
      5 C22        -19.7280     9.1840    36.0970 cc         1 F4L       0.533400
      6 O01        -18.8990     2.9480    34.0600 o          1 F4L      -0.545000
      7 O03        -17.2840     3.5720    32.5150 os         1 F4L      -0.472100
      8 C04        -16.8170     2.2460    32.1700 c3         1 F4L       0.225000
      9 C05        -15.7080     2.4940    31.1240 c3         1 F4L      -0.109433
     10 C06        -17.9750     1.4360    31.5310 c3         1 F4L      -0.109433
     11 C07        -16.2170     1.5610    33.4250 c3         1 F4L      -0.109433
     12 N08        -18.4820     5.1330    33.5220 ns         1 F4L      -0.494900
     13 C09        -19.4840     5.7850    34.3950 c3         1 F4L       0.057700
     14 C11        -21.9980     6.2300    34.6650 cc         1 F4L      -0.176400
     15 C12        -22.7950     7.3260    34.3470 cd         1 F4L      -0.125100
     16 N13        -23.6100     7.6590    35.4560 na         1 F4L      -0.215700
     17 C14        -23.2950     6.7470    36.4460 ca         1 F4L      -0.057200
     18 C16        -21.8690     4.8280    36.8240 ca         1 F4L      -0.079000
     19 C18        -23.3650     5.6400    38.5880 ca         1 F4L      -0.096000
     20 C19        -23.8300     6.6660    37.7390 ca         1 F4L      -0.125000
     21 N23        -20.5220     9.7340    37.0530 na         1 F4L      -0.261700
     22 N24        -20.1780    11.0280    37.2690 nc         1 F4L      -0.209800
     23 N25        -19.1870    11.2410    36.4470 nd         1 F4L      -0.037000
     24 N26        -18.8880    10.1170    35.7100 nd         1 F4L      -0.387000
     25 O27        -18.2280     7.8460    34.0050 o          1 F4L      -0.514100
     26 H1         -20.9450     6.0550    32.8090 hc         1 F4L       0.062700
     27 H2         -21.1300     4.5470    33.6860 hc         1 F4L       0.062700
     28 H3         -22.0410     3.9300    38.7890 ha         1 F4L       0.116000
     29 H4         -14.9010     3.1040    31.5480 hc         1 F4L       0.051144
     30 H5         -15.2740     1.5460    30.7830 hc         1 F4L       0.051144
     31 H6         -16.1080     3.0180    30.2480 hc         1 F4L       0.051144
     32 H7         -18.7190     1.1300    32.2730 hc         1 F4L       0.051144
     33 H8         -18.4800     2.0250    30.7560 hc         1 F4L       0.051144
     34 H9         -17.5890     0.5230    31.0630 hc         1 F4L       0.051144
     35 H10        -16.9930     1.2500    34.1330 hc         1 F4L       0.051144
     36 H11        -15.6610     0.6610    33.1380 hc         1 F4L       0.051144
     37 H12        -15.5250     2.2360    33.9430 hc         1 F4L       0.051144
     38 H13        -17.8800     5.7110    32.9480 hn         1 F4L       0.333500
     39 H14        -19.4430     5.2920    35.3740 h1         1 F4L       0.075700
     40 H15        -22.8250     7.9050    33.4260 h4         1 F4L       0.227000
     41 H16        -24.2930     8.4090    35.5100 hn         1 F4L       0.360000
     42 H17        -21.1260     4.1210    36.4630 ha         1 F4L       0.116000
     43 H18        -23.7620     5.5500    39.5970 ha         1 F4L       0.116000
     44 H19        -24.5850     7.3720    38.0790 ha         1 F4L       0.120000
     45 H20        -20.5400     7.3160    36.0580 hn         1 F4L       0.335500
     46 H21        -21.2750     9.2790    37.5540 hn         1 F4L       0.385000
     47 N21        -19.8170     7.8920    35.6480 ns         1 F4L      -0.474400
     48 C02        -18.2840     3.7860    33.4220 c          1 F4L       0.653100
@<TRIPOS>BOND
     1     1    13 1   
     2     1    14 1   
     3     1    26 1   
     4     1    27 1   
     5     2    14 1   
     6     2    17 ar  
     7     2    18 ar  
     8     3    18 ar  
     9     3    19 ar  
    10     3    28 1   
    11     4    13 1   
    12     4    25 2   
    13     4    47 1   
    14     5    21 1   
    15     5    24 2   
    16     5    47 1   
    17     6    48 2   
    18     7     8 1   
    19     7    48 1   
    20     8     9 1   
    21     8    10 1   
    22     8    11 1   
    23     9    29 1   
    24     9    30 1   
    25     9    31 1   
    26    10    32 1   
    27    10    33 1   
    28    10    34 1   
    29    11    35 1   
    30    11    36 1   
    31    11    37 1   
    32    12    13 1   
    33    12    38 1   
    34    12    48 1   
    35    13    39 1   
    36    14    15 2   
    37    15    16 1   
    38    15    40 1   
    39    16    17 1   
    40    16    41 1   
    41    17    20 ar  
    42    18    42 1   
    43    19    20 ar  
    44    19    43 1   
    45    20    44 1   
    46    21    22 1   
    47    21    46 1   
    48    22    23 2   
    49    23    24 1   
    50    45    47 1   
@<TRIPOS>SUBSTRUCTURE
     1 F4L         1 TEMP              0 ****  ****    0 ROOT
