@<TRIPOS>MOLECULE
F4L
   48    50     1     0     0
SMALL
abcg2


@<TRIPOS>ATOM
      1 C10        -21.5900     5.6140    33.4840 c3         1 F4L      -0.006200
      2 C15        -22.9210     6.3080    35.6370 ca         1 F4L      -0.104800
      3 C17        -23.8430     5.2360    37.5730 ca         1 F4L      -0.136000
      4 C20        -19.4500     6.2060    34.6090 c          1 F4L       0.608100
      5 C22        -19.1940     7.5940    36.5860 cc         1 F4L       0.533400
      6 O01        -17.9330     3.7360    34.5270 o          1 F4L      -0.545000
      7 O03        -17.8150     3.2480    32.3120 os         1 F4L      -0.472100
      8 C04        -16.4860     2.6570    32.3180 c3         1 F4L       0.225000
      9 C05        -16.2500     2.3380    30.8470 c3         1 F4L      -0.109433
     10 C06        -16.4720     1.3740    33.1380 c3         1 F4L      -0.109433
     11 C07        -15.4400     3.6550    32.8000 c3         1 F4L      -0.109433
     12 N08        -19.5860     4.2970    33.1010 ns         1 F4L      -0.494900
     13 C09        -20.2970     5.0420    34.0990 c3         1 F4L       0.057700
     14 C11        -22.2730     6.5820    34.3880 cc         1 F4L      -0.176400
     15 C12        -22.2930     7.9400    34.2390 cd         1 F4L      -0.125100
     16 N13        -22.9100     8.5220    35.3070 na         1 F4L      -0.215700
     17 C14        -23.3020     7.5530    36.1840 ca         1 F4L      -0.057200
     18 C16        -23.2030     5.1370    36.3530 ca         1 F4L      -0.079000
     19 C18        -24.2140     6.4860    38.0970 ca         1 F4L      -0.096000
     20 C19        -23.9520     7.6570    37.4130 ca         1 F4L      -0.125000
     21 N23        -19.6560     7.9650    37.7840 na         1 F4L      -0.261700
     22 N24        -19.0540     9.0950    38.1350 nc         1 F4L      -0.209800
     23 N25        -18.2660     9.3900    37.1850 nd         1 F4L      -0.037000
     24 N26        -18.3140     8.4870    36.2010 nd         1 F4L      -0.387000
     25 O27        -18.7490     6.8680    33.8850 o          1 F4L      -0.514100
     26 H1         -21.3340     6.1150    32.5470 hc         1 F4L       0.062700
     27 H2         -22.2400     4.7730    33.2290 hc         1 F4L       0.062700
     28 H3         -24.0650     4.3390    38.1360 ha         1 F4L       0.116000
     29 H4         -16.2780     3.2410    30.2360 hc         1 F4L       0.051144
     30 H5         -15.2690     1.8800    30.7230 hc         1 F4L       0.051144
     31 H6         -16.9960     1.6390    30.4660 hc         1 F4L       0.051144
     32 H7         -16.6020     1.5590    34.2020 hc         1 F4L       0.051144
     33 H8         -17.2520     0.6880    32.8030 hc         1 F4L       0.051144
     34 H9         -15.5120     0.8740    33.0020 hc         1 F4L       0.051144
     35 H10        -15.5180     3.8640    33.8640 hc         1 F4L       0.051144
     36 H11        -14.4470     3.2420    32.6140 hc         1 F4L       0.051144
     37 H12        -15.5140     4.5950    32.2510 hc         1 F4L       0.051144
     38 H13        -19.8500     4.4050    32.1340 hn         1 F4L       0.333500
     39 H14        -20.5620     4.3840    34.9330 h1         1 F4L       0.075700
     40 H15        -21.8980     8.5430    33.4360 h4         1 F4L       0.227000
     41 H16        -23.0580     9.5110    35.4210 hn         1 F4L       0.360000
     42 H17        -22.9230     4.1670    35.9590 ha         1 F4L       0.116000
     43 H18        -24.7150     6.5310    39.0560 ha         1 F4L       0.116000
     44 H19        -24.2370     8.6200    37.8190 ha         1 F4L       0.120000
     45 H20        -20.2280     5.8540    36.4730 hn         1 F4L       0.335500
     46 H21        -20.3510     7.5330    38.3800 hn         1 F4L       0.385000
     47 N21        -19.6160     6.4630    35.9470 ns         1 F4L      -0.474400
     48 C02        -18.3840     3.7500    33.4000 c          1 F4L       0.653100
@<TRIPOS>BOND
     1     1    13 1   
     2     1    14 1   
     3     1    26 1   
     4     1    27 1   
     5     2    14 1   
     6     2    17 ar  
     7     2    18 ar  
     8     3    18 ar  
     9     3    19 ar  
    10     3    28 1   
    11     4    13 1   
    12     4    25 2   
    13     4    47 1   
    14     5    21 1   
    15     5    24 2   
    16     5    47 1   
    17     6    48 2   
    18     7     8 1   
    19     7    48 1   
    20     8     9 1   
    21     8    10 1   
    22     8    11 1   
    23     9    29 1   
    24     9    30 1   
    25     9    31 1   
    26    10    32 1   
    27    10    33 1   
    28    10    34 1   
    29    11    35 1   
    30    11    36 1   
    31    11    37 1   
    32    12    13 1   
    33    12    38 1   
    34    12    48 1   
    35    13    39 1   
    36    14    15 2   
    37    15    16 1   
    38    15    40 1   
    39    16    17 1   
    40    16    41 1   
    41    17    20 ar  
    42    18    42 1   
    43    19    20 ar  
    44    19    43 1   
    45    20    44 1   
    46    21    22 1   
    47    21    46 1   
    48    22    23 2   
    49    23    24 1   
    50    45    47 1   
@<TRIPOS>SUBSTRUCTURE
     1 F4L         1 TEMP              0 ****  ****    0 ROOT
