@<TRIPOS>MOLECULE
F4N
   41    43     1     0     0
SMALL
No Charge or Current Charge


@<TRIPOS>ATOM
      1 O11         -3.6000     1.9890     2.4270 o          1 F4N      -0.526000
      2 C7          -2.7480     2.2150    -2.1510 c3         1 F4N      -0.084800
      3 C1          -3.3480     0.9990    -1.4490 ca         1 F4N       0.077700
      4 C2          -3.6920    -0.1130    -2.2400 ca         1 F4N      -0.150000
      5 C3          -4.2280    -1.2770    -1.6690 ca         1 F4N       0.007000
      6 C4          -4.4280    -1.3520    -0.2760 ca         1 F4N      -0.206200
      7 C5          -4.0900    -0.2410     0.5300 ca         1 F4N       0.050000
      8 C6          -3.5600     0.9360    -0.0460 ca         1 F4N      -0.266500
      9 O22         -5.1550    -2.6130     1.5690 o          1 F4N      -0.393500
     10 O21         -5.2640    -3.5440    -0.4000 o          1 F4N      -0.393500
     11 S9          -3.1310     2.3060     1.0710 sy         1 F4N       1.190600
     12 O10         -3.4810     3.5820     0.4320 o          1 F4N      -0.526000
     13 N12         -1.4000     2.2010     1.0900 nh         1 F4N      -0.434600
     14 C13         -0.6330     3.4040     1.4840 c3         1 F4N       0.168100
     15 N14         -0.7940     0.9940     0.7670 n2         1 F4N      -0.429400
     16 C15          0.4870     0.7840     0.7260 ce         1 F4N       0.461500
     17 C17          0.9950    -0.4720     0.1860 cc         1 F4N      -0.263700
     18 C16          0.3030    -1.5470    -0.3470 cd         1 F4N       0.036600
     19 N20          1.1640    -2.5640    -0.7550 nd         1 F4N      -0.282600
     20 C19          2.3790    -2.1300    -0.4800 cc         1 F4N      -0.060000
     21 N18          2.2960    -0.8900     0.0780 na         1 F4N       0.142100
     22 C23          3.4030    -0.1400     0.4950 cc         1 F4N      -0.080000
     23 C24          4.6400    -0.7540     0.2950 cd         1 F4N      -0.058900
     24 Br2          6.2090     0.1550     0.8130 br         1 F4N      -0.059100
     25 C25          4.7700    -2.0680    -0.2970 cd         1 F4N      -0.082000
     26 C26          3.6400    -2.7500    -0.6810 cc         1 F4N      -0.068000
     27 H1          -1.8230     2.5490    -1.6690 hc         1 F4N       0.068700
     28 H2          -2.4930     1.9940    -3.1940 hc         1 F4N       0.068700
     29 H3          -3.4540     3.0530    -2.1650 hc         1 F4N       0.068700
     30 H4          -3.5400    -0.0810    -3.3170 ha         1 F4N       0.129000
     31 H5          -4.4790    -2.1150    -2.3180 ha         1 F4N       0.154000
     32 H6          -4.2370    -0.2960     1.6080 ha         1 F4N       0.181000
     33 H7           0.0380     3.1710     2.3210 h1         1 F4N       0.058033
     34 H8          -0.0300     3.7630     0.6400 h1         1 F4N       0.058033
     35 H9          -1.2960     4.2190     1.8020 h1         1 F4N       0.058033
     36 H10          1.2210     1.5180     1.0620 h4         1 F4N      -0.003200
     37 H11         -0.7760    -1.6430    -0.4600 h4         1 F4N       0.242000
     38 H12          3.2520     0.8360     0.9330 h4         1 F4N       0.156000
     39 H13          5.7490    -2.5140    -0.4380 ha         1 F4N       0.143000
     40 H14          3.6930    -3.7380    -1.1280 ha         1 F4N       0.153000
     41 N8          -4.9910    -2.5920     0.3420 no         1 F4N       0.697200
@<TRIPOS>BOND
     1     1    11 2   
     2     2     3 1   
     3     2    27 1   
     4     2    28 1   
     5     2    29 1   
     6     3     4 ar  
     7     3     8 ar  
     8     4     5 ar  
     9     4    30 1   
    10     5     6 ar  
    11     5    31 1   
    12     6     7 ar  
    13     6    41 1   
    14     7     8 ar  
    15     7    32 1   
    16     8    11 1   
    17     9    41 1   
    18    10    41 1   
    19    11    12 2   
    20    11    13 1   
    21    13    14 1   
    22    13    15 1   
    23    14    33 1   
    24    14    34 1   
    25    14    35 1   
    26    15    16 2   
    27    16    17 1   
    28    16    36 1   
    29    17    18 2   
    30    17    21 1   
    31    18    19 1   
    32    18    37 1   
    33    19    20 2   
    34    20    21 1   
    35    20    26 1   
    36    21    22 1   
    37    22    23 2   
    38    22    38 1   
    39    23    24 1   
    40    23    25 1   
    41    25    26 2   
    42    25    39 1   
    43    26    40 1   
@<TRIPOS>SUBSTRUCTURE
     1 F4N         1 TEMP              0 ****  ****    0 ROOT
