@<TRIPOS>MOLECULE
F4N
   41    43     1     0     0
SMALL
abcg2


@<TRIPOS>ATOM
      1 O11         -2.8750     1.1460     2.4430 o          1 F4N      -0.526000
      2 C7          -3.2830     2.6570    -1.8620 c3         1 F4N      -0.084800
      3 C1          -3.7240     1.3100    -1.3810 ca         1 F4N       0.077700
      4 C2          -4.3380     0.4380    -2.2790 ca         1 F4N      -0.150000
      5 C3          -4.7550    -0.8270    -1.9110 ca         1 F4N       0.007000
      6 C4          -4.5490    -1.2440    -0.6060 ca         1 F4N      -0.206200
      7 C5          -3.9490    -0.4180     0.3260 ca         1 F4N       0.050000
      8 C6          -3.5510     0.8470    -0.0690 ca         1 F4N      -0.266500
      9 O22         -4.7330    -2.9260     0.9300 o          1 F4N      -0.393500
     10 O21         -5.5240    -3.2660    -1.0230 o          1 F4N      -0.393500
     11 S9          -2.8300     1.8750     1.1890 sy         1 F4N       1.190600
     12 O10         -3.3960     3.2100     1.1420 o          1 F4N      -0.526000
     13 N12         -1.2520     2.0090     0.6310 nh         1 F4N      -0.434600
     14 C13         -0.4880     3.2260     0.8450 c3         1 F4N       0.168100
     15 N14         -0.6880     0.7860     0.5760 n2         1 F4N      -0.429400
     16 C15          0.5760     0.6580     0.4830 ce         1 F4N       0.461500
     17 C17          1.1280    -0.6680     0.3700 cc         1 F4N      -0.263700
     18 C16          0.5260    -1.9090     0.2960 cd         1 F4N       0.036600
     19 N20          1.4270    -2.9010     0.1960 nd         1 F4N      -0.282600
     20 C19          2.6110    -2.3100     0.2040 cc         1 F4N      -0.060000
     21 N18          2.4780    -0.9350     0.3090 na         1 F4N       0.142100
     22 C23          3.5520    -0.0980     0.3400 cc         1 F4N      -0.080000
     23 C24          4.7960    -0.6360     0.2590 cd         1 F4N      -0.058900
     24 BR2          6.2890     0.5020     0.2960 br         1 F4N      -0.059100
     25 C25          4.9890    -2.0360     0.1480 cd         1 F4N      -0.082000
     26 C26          3.9020    -2.8590     0.1230 cc         1 F4N      -0.068000
     27 H1          -2.2200     2.8180    -1.6780 hc         1 F4N       0.068700
     28 H2          -3.4540     2.7470    -2.9320 hc         1 F4N       0.068700
     29 H3          -3.8250     3.4580    -1.3630 hc         1 F4N       0.068700
     30 H4          -4.4900     0.7610    -3.3000 ha         1 F4N       0.129000
     31 H5          -5.2260    -1.4700    -2.6410 ha         1 F4N       0.154000
     32 H6          -3.7930    -0.7520     1.3410 ha         1 F4N       0.181000
     33 H7           0.0870     3.1840     1.7720 h1         1 F4N       0.058033
     34 H8           0.1900     3.3730     0.0050 h1         1 F4N       0.058033
     35 H9          -1.1610     4.0760     0.8780 h1         1 F4N       0.058033
     36 H10          1.2640     1.5010     0.4730 h4         1 F4N      -0.003200
     37 H11         -0.5360    -2.1000     0.3090 h4         1 F4N       0.242000
     38 H12          3.3630     0.9620     0.4280 h4         1 F4N       0.156000
     39 H13          5.9860    -2.4470     0.0850 ha         1 F4N       0.143000
     40 H14          4.0100    -3.9310     0.0420 ha         1 F4N       0.153000
     41 N8          -4.9660    -2.5780    -0.2030 no         1 F4N       0.697200
@<TRIPOS>BOND
     1     1    11 2   
     2     2     3 1   
     3     2    27 1   
     4     2    28 1   
     5     2    29 1   
     6     3     4 ar  
     7     3     8 ar  
     8     4     5 ar  
     9     4    30 1   
    10     5     6 ar  
    11     5    31 1   
    12     6     7 ar  
    13     6    41 1   
    14     7     8 ar  
    15     7    32 1   
    16     8    11 1   
    17     9    41 1   
    18    10    41 1   
    19    11    12 2   
    20    11    13 1   
    21    13    14 1   
    22    13    15 1   
    23    14    33 1   
    24    14    34 1   
    25    14    35 1   
    26    15    16 2   
    27    16    17 1   
    28    16    36 1   
    29    17    18 2   
    30    17    21 1   
    31    18    19 1   
    32    18    37 1   
    33    19    20 2   
    34    20    21 1   
    35    20    26 1   
    36    21    22 1   
    37    22    23 2   
    38    22    38 1   
    39    23    24 1   
    40    23    25 1   
    41    25    26 2   
    42    25    39 1   
    43    26    40 1   
@<TRIPOS>SUBSTRUCTURE
     1 F4N         1 TEMP              0 ****  ****    0 ROOT
