@<TRIPOS>MOLECULE
F4O
  108   110     1     0     0
SMALL
No Charge or Current Charge


@<TRIPOS>ATOM
      1 C01          1.4750     0.0810   -11.8010 c3         1 F4O      -0.081100
      2 CAA         -3.5840    -2.1930    -8.8470 ca         1 F4O      -0.157300
      3 CAB         -3.3940    -1.0070    -9.5750 ca         1 F4O       0.194100
      4 CAC         -2.8670     0.1390    -8.9610 ca         1 F4O      -0.203600
      5 CAD         -2.5000     0.1220    -7.5850 ca         1 F4O       0.064000
      6 CAE         -2.5930    -1.1020    -6.8650 ca         1 F4O      -0.123000
      7 CAF         -3.1550    -2.2420    -7.5070 ca         1 F4O       0.197100
      8 CAG         -2.0180     1.2870    -6.9150 ca         1 F4O       0.073100
      9 CAH         -1.5200     1.2180    -5.5960 ca         1 F4O      -0.016300
     10 CAI         -1.5470    -0.0150    -4.9150 ca         1 F4O      -0.148000
     11 CAJ         -2.1020    -1.1540    -5.5280 ca         1 F4O       0.164100
     12 CAM         -0.9030     2.4610    -4.9350 c3         1 F4O      -0.053800
     13 CAQ         -2.5680     1.2980    -9.8620 c          1 F4O       0.603900
     14 CAR         -1.1250     1.5050   -10.2980 ce         1 F4O      -0.168400
     15 CAT         -0.1550     0.5940    -9.9680 c2         1 F4O      -0.196200
     16 CAU          1.3340     0.5340   -10.3250 c3         1 F4O       0.220200
     17 CAV         -0.8760     2.7420   -11.1670 c3         1 F4O      -0.052900
     18 CAW          2.1730    -0.4520    -9.4010 c3         1 F4O       0.155300
     19 CAX         -2.7470    -1.5140   -11.8590 c3         1 F4O       0.148900
     20 CAY         -1.3290     0.4280    -2.4230 c          1 F4O       0.591300
     21 CBA         -0.2700     0.4010    -1.3370 ce         1 F4O      -0.148400
     22 CBB          1.0430     0.0790    -1.5910 cf         1 F4O      -0.163000
     23 CBC         -0.7130     0.8350     0.0630 c3         1 F4O      -0.048900
     24 CBD          2.1210     0.0570    -0.6060 cf         1 F4O      -0.187000
     25 CBE          3.4480     0.0980    -0.8770 c2         1 F4O      -0.206200
     26 CBF          4.1540     0.2100    -2.2290 c3         1 F4O      -0.067500
     27 CBG          4.9250    -1.1110    -2.5290 c3         1 F4O       0.177300
     28 CBH          5.7760    -1.2020    -3.8510 c3         1 F4O      -0.082700
     29 CBI          5.0400    -1.5700    -5.1900 c3         1 F4O       0.181300
     30 CBJ          4.0260    -0.5520    -5.7970 c3         1 F4O      -0.175700
     31 CBK          3.4130    -1.0290    -7.1620 c3         1 F4O       0.191300
     32 CBL          2.5230     0.0140    -7.9350 c3         1 F4O      -0.084700
     33 CBN          1.2740     0.4080    -7.1040 c3         1 F4O      -0.099100
     34 CBR          5.0730     1.4560    -2.1830 c3         1 F4O      -0.081100
     35 CBS          6.9590    -2.1850    -3.6270 c3         1 F4O      -0.087100
     36 CBX         -2.9900     3.4580    -7.2980 c          1 F4O       0.595100
     37 CBY         -2.7110     4.7540    -8.0450 c3         1 F4O      -0.155100
     38 CBZ          4.6310     0.8520    -5.9090 c          1 F4O       0.595100
     39 CCC          6.4950     2.1260    -6.7500 c3         1 F4O       0.149900
     40 NAN         -0.9410    -0.1250    -3.6340 ns         1 F4O      -0.183000
     41 O01          1.5740    -1.7640    -9.3680 oh         1 F4O      -0.670000
     42 O02          1.8870     1.8460   -10.2200 oh         1 F4O      -0.661000
     43 O03          3.9990    -2.2030    -2.4520 oh         1 F4O      -0.697000
     44 OAK         -3.2810    -3.4210    -6.8350 oh         1 F4O      -0.537100
     45 OAP         -3.6860    -0.9650   -10.9180 os         1 F4O      -0.366100
     46 OAS         -3.4730     2.0490   -10.2080 o          1 F4O      -0.513100
     47 OAZ         -2.4510     0.8960    -2.2610 o          1 F4O      -0.553100
     48 OBP          4.4550    -1.5010    -8.0230 oh         1 F4O      -0.667000
     49 OBQ          4.3730    -2.8170    -5.0080 oh         1 F4O      -0.679000
     50 OBV         -2.0220     2.5180    -7.5330 os         1 F4O      -0.374200
     51 OBW         -3.9590     3.2850    -6.5730 o          1 F4O      -0.441000
     52 OCA          4.1130     1.8450    -5.4180 o          1 F4O      -0.496000
     53 OCB          5.8230     0.8640    -6.5860 os         1 F4O      -0.435100
     54 H1           1.0630    -0.9260   -11.9380 hc         1 F4O       0.049700
     55 H2           0.9430     0.7490   -12.4860 hc         1 F4O       0.049700
     56 H3           2.5280     0.0610   -12.1050 hc         1 F4O       0.049700
     57 H4          -1.6360     2.9670    -4.2960 hc         1 F4O       0.056367
     58 H5          -0.0330     2.2110    -4.3170 hc         1 F4O       0.056367
     59 H6          -0.5420     3.1910    -5.6680 hc         1 F4O       0.056367
     60 H7          -3.4310    -4.1450    -9.8090 hc         1 F4O       0.048367
     61 H8          -4.8930    -3.9500    -8.8280 hc         1 F4O       0.048367
     62 H9          -4.7930    -3.1790   -10.4000 hc         1 F4O       0.048367
     63 H10         -0.4350    -0.2780    -9.3790 ha         1 F4O       0.201000
     64 H11         -1.7250     2.9570   -11.8270 hc         1 F4O       0.051700
     65 H12         -0.7160     3.6310   -10.5440 hc         1 F4O       0.051700
     66 H13         -0.0090     2.6440   -11.8250 hc         1 F4O       0.051700
     67 H14         -3.1280    -1.4100   -12.8820 h1         1 F4O       0.042033
     68 H15         -1.7850    -0.9900   -11.7970 h1         1 F4O       0.042033
     69 H16         -2.5710    -2.5790   -11.6650 h1         1 F4O       0.042033
     70 H17          1.3410    -0.1680    -2.6090 ha         1 F4O       0.174000
     71 H18         -0.7470    -0.0220     0.7450 hc         1 F4O       0.055033
     72 H19         -0.0210     1.5710     0.4880 hc         1 F4O       0.055033
     73 H20         -1.7050     1.3000     0.0800 hc         1 F4O       0.055033
     74 H21          1.8250     0.0120     0.4450 ha         1 F4O       0.182000
     75 H22          4.1370     0.0770    -0.0280 ha         1 F4O       0.174000
     76 H23          3.4250     0.3820    -3.0250 hc         1 F4O       0.072700
     77 H24          5.6370    -1.2100    -1.6970 h1         1 F4O       0.037700
     78 H25          6.2590    -0.2330    -4.0090 hc         1 F4O       0.063700
     79 H26          5.8400    -1.6950    -5.9330 h1         1 F4O       0.085700
     80 H27          3.1890    -0.4720    -5.0980 hc         1 F4O       0.079700
     81 H28          2.7570    -1.8790    -6.9250 h1         1 F4O       0.044700
     82 H29          3.1220     0.9230    -8.0520 hc         1 F4O       0.066700
     83 H30          1.5450     0.7340    -6.0950 hc         1 F4O       0.045700
     84 H31          0.7470     1.2480    -7.5670 hc         1 F4O       0.045700
     85 H32          0.5820    -0.4380    -7.0150 hc         1 F4O       0.045700
     86 H33          4.4960     2.3420    -1.8900 hc         1 F4O       0.042700
     87 H34          5.8800     1.3210    -1.4520 hc         1 F4O       0.042700
     88 H35          5.5260     1.6710    -3.1550 hc         1 F4O       0.042700
     89 H36          7.5770    -1.8640    -2.7790 hc         1 F4O       0.043367
     90 H37          6.6000    -3.2000    -3.4190 hc         1 F4O       0.043367
     91 H38          7.6090    -2.2260    -4.5100 hc         1 F4O       0.043367
     92 H39         -3.4470     5.5340    -7.8230 hc         1 F4O       0.075033
     93 H40         -1.6870     5.0770    -7.8260 hc         1 F4O       0.075033
     94 H41         -2.6630     4.5380    -9.1170 hc         1 F4O       0.075033
     95 H42          7.4300     1.9910    -7.3080 h1         1 F4O       0.051033
     96 H43          5.8660     2.8350    -7.3050 h1         1 F4O       0.051033
     97 H44          6.7400     2.5670    -5.7750 h1         1 F4O       0.051033
     98 H45         -0.0210    -0.5460    -3.6390 hn         1 F4O       0.151000
     99 H46          1.1840     2.3940    -9.8150 ho         1 F4O       0.449000
    100 H47          3.4130    -1.9950    -1.6890 ho         1 F4O       0.458000
    101 H48         -2.8840    -3.2480    -5.9430 ho         1 F4O       0.495000
    102 H49         -1.7990    -2.1120    -3.8980 ho         1 F4O       0.493000
    103 H50          4.8090    -2.3170    -7.6070 ho         1 F4O       0.462000
    104 H51          4.1390    -2.8070    -4.0380 ho         1 F4O       0.473000
    105 H52          2.2860    -2.3820    -9.0950 ho         1 F4O       0.449000
    106 H53          3.1410    -0.5380    -9.9140 h1         1 F4O       0.063700
    107 OAL         -2.1290    -2.3150    -4.8000 oh         1 F4O      -0.568100
    108 CAO         -4.2070    -3.4310    -9.5080 c3         1 F4O      -0.029800
@<TRIPOS>BOND
     1     1    16 1   
     2     1    54 1   
     3     1    55 1   
     4     1    56 1   
     5     2     3 ar  
     6     2     7 ar  
     7     2   108 1   
     8     3     4 ar  
     9     3    45 1   
    10     4     5 ar  
    11     4    13 1   
    12     5     6 ar  
    13     5     8 ar  
    14     6     7 ar  
    15     6    11 ar  
    16     7    44 1   
    17     8     9 ar  
    18     8    50 1   
    19     9    10 ar  
    20     9    12 1   
    21    10    11 ar  
    22    10    40 1   
    23    11   107 1   
    24    12    57 1   
    25    12    58 1   
    26    12    59 1   
    27    13    14 1   
    28    13    46 2   
    29    14    15 2   
    30    14    17 1   
    31    15    16 1   
    32    15    63 1   
    33    16    18 1   
    34    16    42 1   
    35    17    64 1   
    36    17    65 1   
    37    17    66 1   
    38    18    32 1   
    39    18    41 1   
    40    18   106 1   
    41    19    45 1   
    42    19    67 1   
    43    19    68 1   
    44    19    69 1   
    45    20    21 1   
    46    20    40 1   
    47    20    47 2   
    48    21    22 2   
    49    21    23 1   
    50    22    24 1   
    51    22    70 1   
    52    23    71 1   
    53    23    72 1   
    54    23    73 1   
    55    24    25 2   
    56    24    74 1   
    57    25    26 1   
    58    25    75 1   
    59    26    27 1   
    60    26    34 1   
    61    26    76 1   
    62    27    28 1   
    63    27    43 1   
    64    27    77 1   
    65    28    29 1   
    66    28    35 1   
    67    28    78 1   
    68    29    30 1   
    69    29    49 1   
    70    29    79 1   
    71    30    31 1   
    72    30    38 1   
    73    30    80 1   
    74    31    32 1   
    75    31    48 1   
    76    31    81 1   
    77    32    33 1   
    78    32    82 1   
    79    33    83 1   
    80    33    84 1   
    81    33    85 1   
    82    34    86 1   
    83    34    87 1   
    84    34    88 1   
    85    35    89 1   
    86    35    90 1   
    87    35    91 1   
    88    36    37 1   
    89    36    50 1   
    90    36    51 2   
    91    37    92 1   
    92    37    93 1   
    93    37    94 1   
    94    38    52 2   
    95    38    53 1   
    96    39    53 1   
    97    39    95 1   
    98    39    96 1   
    99    39    97 1   
   100    40    98 1   
   101    41   105 1   
   102    42    99 1   
   103    43   100 1   
   104    44   101 1   
   105    48   103 1   
   106    49   104 1   
   107    60   108 1   
   108    61   108 1   
   109    62   108 1   
   110   102   107 1   
@<TRIPOS>SUBSTRUCTURE
     1 F4O         1 TEMP              0 ****  ****    0 ROOT
