@<TRIPOS>MOLECULE
F4O
  108   110     1     0     0
SMALL
abcg2


@<TRIPOS>ATOM
      1 C01          1.4440    -0.2320   -11.6620 c3         1 F4O      -0.081100
      2 CAA         -3.5920    -2.0600    -8.8480 ca         1 F4O      -0.157300
      3 CAB         -3.2940    -0.8610    -9.5310 ca         1 F4O       0.194100
      4 CAC         -2.7320     0.2330    -8.9080 ca         1 F4O      -0.203600
      5 CAD         -2.4120     0.1610    -7.5280 ca         1 F4O       0.064000
      6 CAE         -2.5750    -1.0830    -6.8420 ca         1 F4O      -0.123000
      7 CAF         -3.1970    -2.1690    -7.5280 ca         1 F4O       0.197100
      8 CAG         -1.8920     1.2570    -6.7960 ca         1 F4O       0.073100
      9 CAH         -1.4090     1.1580    -5.5170 ca         1 F4O      -0.016300
     10 CAI         -1.4820    -0.1080    -4.8880 ca         1 F4O      -0.148000
     11 CAJ         -2.0850    -1.1750    -5.5140 ca         1 F4O       0.164100
     12 CAM         -0.7820     2.3280    -4.8210 c3         1 F4O      -0.053800
     13 CAQ         -2.3490     1.4010    -9.7810 c          1 F4O       0.603900
     14 CAR         -0.9360     1.5070   -10.2370 ce         1 F4O      -0.168400
     15 CAT         -0.0730     0.5410    -9.8830 c2         1 F4O      -0.196200
     16 CAU          1.3820     0.3770   -10.2550 c3         1 F4O       0.220200
     17 CAV         -0.6320     2.7040   -11.0910 c3         1 F4O      -0.052900
     18 CAW          2.1350    -0.5730    -9.2770 c3         1 F4O       0.155300
     19 CAX         -2.7000    -1.4740   -11.7510 c3         1 F4O       0.148900
     20 CAY         -1.2330     0.2830    -2.4680 c          1 F4O       0.591300
     21 CBA         -0.2430     0.2180    -1.3550 ce         1 F4O      -0.148400
     22 CBB          1.0730     0.2650    -1.6440 cf         1 F4O      -0.163000
     23 CBC         -0.8400     0.2080     0.0200 c3         1 F4O      -0.048900
     24 CBD          2.1600     0.2700    -0.6910 cf         1 F4O      -0.187000
     25 CBE          3.4650     0.3550    -1.0000 c2         1 F4O      -0.206200
     26 CBF          4.1140     0.4580    -2.3520 c3         1 F4O      -0.067500
     27 CBG          4.7610    -0.9150    -2.6560 c3         1 F4O       0.177300
     28 CBH          5.6690    -1.0220    -3.9010 c3         1 F4O      -0.082700
     29 CBI          4.9980    -1.4180    -5.2310 c3         1 F4O       0.181300
     30 CBJ          3.9350    -0.4380    -5.7750 c3         1 F4O      -0.175700
     31 CBK          3.2950    -1.0110    -7.0820 c3         1 F4O       0.191300
     32 CBL          2.5260     0.0300    -7.9120 c3         1 F4O      -0.084700
     33 CBN          1.3350     0.5500    -7.1150 c3         1 F4O      -0.099100
     34 CBR          5.1480     1.5910    -2.3090 c3         1 F4O      -0.081100
     35 CBS          6.8210    -1.9950    -3.6150 c3         1 F4O      -0.087100
     36 CBX         -2.7770     3.4020    -7.2590 c          1 F4O       0.595100
     37 CBY         -2.4650     4.6780    -7.9710 c3         1 F4O      -0.155100
     38 CBZ          4.5090     0.9450    -5.9750 c          1 F4O       0.595100
     39 CCC          6.2620     2.2060    -6.9480 c3         1 F4O       0.149900
     40 NAN         -0.8690    -0.3410    -3.6300 ns         1 F4O      -0.183000
     41 O01          1.3430    -1.7560    -9.1270 oh         1 F4O      -0.670000
     42 O02          2.1090     1.6090   -10.3330 oh         1 F4O      -0.661000
     43 O03          3.7460    -1.9300    -2.7560 oh         1 F4O      -0.697000
     44 OAK         -3.4440    -3.3560    -6.9190 oh         1 F4O      -0.537100
     45 OAP         -3.5860    -0.7600   -10.8720 os         1 F4O      -0.366100
     46 OAS         -3.1890     2.2120   -10.1460 o          1 F4O      -0.513100
     47 OAZ         -2.3110     0.8580    -2.3520 o          1 F4O      -0.553100
     48 OBP          4.2630    -1.6380    -7.9210 oh         1 F4O      -0.667000
     49 OBQ          4.4720    -2.7460    -5.2070 oh         1 F4O      -0.679000
     50 OBV         -1.7800     2.4890    -7.4480 os         1 F4O      -0.374200
     51 OBW         -3.7590     3.1690    -6.6020 o          1 F4O      -0.441000
     52 OCA          4.0100     1.9640    -5.5490 o          1 F4O      -0.496000
     53 OCB          5.6380     0.9310    -6.6940 os         1 F4O      -0.435100
     54 H1           0.9650    -1.2090   -11.6720 hc         1 F4O       0.049700
     55 H2           0.9340     0.4170   -12.3730 hc         1 F4O       0.049700
     56 H3           2.4870    -0.3450   -11.9620 hc         1 F4O       0.049700
     57 H4          -1.4980     2.8080    -4.1510 hc         1 F4O       0.056367
     58 H5           0.0660     2.0070    -4.2180 hc         1 F4O       0.056367
     59 H6          -0.4350     3.0680    -5.5370 hc         1 F4O       0.056367
     60 H7          -3.6240    -4.0180    -9.7590 hc         1 F4O       0.048367
     61 H8          -5.0720    -3.6080    -8.8540 hc         1 F4O       0.048367
     62 H9          -4.7840    -2.8700   -10.4370 hc         1 F4O       0.048367
     63 H10         -0.4570    -0.2870    -9.3050 ha         1 F4O       0.201000
     64 H11         -1.3540     2.7690   -11.9070 hc         1 F4O       0.051700
     65 H12         -0.7330     3.6240   -10.5100 hc         1 F4O       0.051700
     66 H13          0.3710     2.6610   -11.5000 hc         1 F4O       0.051700
     67 H14         -3.1040    -1.3540   -12.7530 h1         1 F4O       0.042033
     68 H15         -1.6970    -1.0490   -11.7020 h1         1 F4O       0.042033
     69 H16         -2.6580    -2.5340   -11.4970 h1         1 F4O       0.042033
     70 H17          1.3630     0.3310    -2.6850 ha         1 F4O       0.174000
     71 H18         -0.0840     0.1260     0.7970 hc         1 F4O       0.055033
     72 H19         -1.4100     1.1240     0.1900 hc         1 F4O       0.055033
     73 H20         -1.5390    -0.6240     0.1280 hc         1 F4O       0.055033
     74 H21          1.9040     0.1980     0.3590 ha         1 F4O       0.182000
     75 H22          4.1710     0.3310    -0.1740 ha         1 F4O       0.174000
     76 H23          3.3760     0.6790    -3.1210 hc         1 F4O       0.072700
     77 H24          5.3950    -1.1460    -1.7920 h1         1 F4O       0.037700
     78 H25          6.1170    -0.0410    -4.0670 hc         1 F4O       0.063700
     79 H26          5.8010    -1.4460    -5.9660 h1         1 F4O       0.085700
     80 H27          3.1310    -0.3330    -5.0490 hc         1 F4O       0.079700
     81 H28          2.5830    -1.7680    -6.7450 h1         1 F4O       0.044700
     82 H29          3.2070     0.8570    -8.1340 hc         1 F4O       0.066700
     83 H30          1.6440     0.9530    -6.1530 hc         1 F4O       0.045700
     84 H31          0.8160     1.3490    -7.6410 hc         1 F4O       0.045700
     85 H32          0.6180    -0.2490    -6.9320 hc         1 F4O       0.045700
     86 H33          4.6770     2.5100    -1.9560 hc         1 F4O       0.042700
     87 H34          5.9640     1.3460    -1.6240 hc         1 F4O       0.042700
     88 H35          5.5700     1.7940    -3.2910 hc         1 F4O       0.042700
     89 H36          7.4190    -1.6380    -2.7750 hc         1 F4O       0.043367
     90 H37          6.4420    -2.9870    -3.3660 hc         1 F4O       0.043367
     91 H38          7.4740    -2.0890    -4.4840 hc         1 F4O       0.043367
     92 H39         -3.2100     5.4300    -7.7230 hc         1 F4O       0.075033
     93 H40         -1.4680     5.0240    -7.6960 hc         1 F4O       0.075033
     94 H41         -2.4700     4.4920    -9.0460 hc         1 F4O       0.075033
     95 H42          7.1490     1.9820    -7.5320 h1         1 F4O       0.051033
     96 H43          5.5870     2.8500    -7.5090 h1         1 F4O       0.051033
     97 H44          6.5320     2.6840    -6.0080 h1         1 F4O       0.051033
     98 H45          0.0070    -0.8450    -3.6330 hn         1 F4O       0.151000
     99 H46          1.9360     2.1330    -9.5410 ho         1 F4O       0.449000
    100 H47          3.2130    -1.9220    -1.9500 ho         1 F4O       0.458000
    101 H48         -3.1160    -3.3260    -6.0030 ho         1 F4O       0.495000
    102 H49         -1.8950    -2.2830    -3.9520 ho         1 F4O       0.493000
    103 H50          4.5270    -2.4600    -7.4870 ho         1 F4O       0.462000
    104 H51          3.9250    -2.8080    -4.4070 ho         1 F4O       0.473000
    105 H52          1.9430    -2.4920    -8.9550 ho         1 F4O       0.449000
    106 H53          3.0630    -0.8280    -9.7880 h1         1 F4O       0.063700
    107 OAL         -2.1830    -2.3780    -4.8740 oh         1 F4O      -0.568100
    108 CAO         -4.3080    -3.2000    -9.5170 c3         1 F4O      -0.029800
@<TRIPOS>BOND
     1     1    16 1   
     2     1    54 1   
     3     1    55 1   
     4     1    56 1   
     5     2     3 ar  
     6     2     7 ar  
     7     2   108 1   
     8     3     4 ar  
     9     3    45 1   
    10     4     5 ar  
    11     4    13 1   
    12     5     6 ar  
    13     5     8 ar  
    14     6     7 ar  
    15     6    11 ar  
    16     7    44 1   
    17     8     9 ar  
    18     8    50 1   
    19     9    10 ar  
    20     9    12 1   
    21    10    11 ar  
    22    10    40 1   
    23    11   107 1   
    24    12    57 1   
    25    12    58 1   
    26    12    59 1   
    27    13    14 1   
    28    13    46 2   
    29    14    15 2   
    30    14    17 1   
    31    15    16 1   
    32    15    63 1   
    33    16    18 1   
    34    16    42 1   
    35    17    64 1   
    36    17    65 1   
    37    17    66 1   
    38    18    32 1   
    39    18    41 1   
    40    18   106 1   
    41    19    45 1   
    42    19    67 1   
    43    19    68 1   
    44    19    69 1   
    45    20    21 1   
    46    20    40 1   
    47    20    47 2   
    48    21    22 2   
    49    21    23 1   
    50    22    24 1   
    51    22    70 1   
    52    23    71 1   
    53    23    72 1   
    54    23    73 1   
    55    24    25 2   
    56    24    74 1   
    57    25    26 1   
    58    25    75 1   
    59    26    27 1   
    60    26    34 1   
    61    26    76 1   
    62    27    28 1   
    63    27    43 1   
    64    27    77 1   
    65    28    29 1   
    66    28    35 1   
    67    28    78 1   
    68    29    30 1   
    69    29    49 1   
    70    29    79 1   
    71    30    31 1   
    72    30    38 1   
    73    30    80 1   
    74    31    32 1   
    75    31    48 1   
    76    31    81 1   
    77    32    33 1   
    78    32    82 1   
    79    33    83 1   
    80    33    84 1   
    81    33    85 1   
    82    34    86 1   
    83    34    87 1   
    84    34    88 1   
    85    35    89 1   
    86    35    90 1   
    87    35    91 1   
    88    36    37 1   
    89    36    50 1   
    90    36    51 2   
    91    37    92 1   
    92    37    93 1   
    93    37    94 1   
    94    38    52 2   
    95    38    53 1   
    96    39    53 1   
    97    39    95 1   
    98    39    96 1   
    99    39    97 1   
   100    40    98 1   
   101    41   105 1   
   102    42    99 1   
   103    43   100 1   
   104    44   101 1   
   105    48   103 1   
   106    49   104 1   
   107    60   108 1   
   108    61   108 1   
   109    62   108 1   
   110   102   107 1   
@<TRIPOS>SUBSTRUCTURE
     1 F4O         1 TEMP              0 ****  ****    0 ROOT
