@<TRIPOS>MOLECULE
F4P
   47    50     1     0     0
SMALL
No Charge or Current Charge


@<TRIPOS>ATOM
      1 C12          2.6050    -2.2960     1.2790 ca         1 F4P      -0.071000
      2 C16          1.7620    -1.8900    -0.9690 ca         1 F4P      -0.071000
      3 C17          3.5210     1.4500     1.2540 ca         1 F4P      -0.071000
      4 C21          2.5710     1.4590    -0.9880 ca         1 F4P      -0.071000
      5 C13          3.0320    -3.5770     0.8850 ca         1 F4P      -0.153500
      6 C15          2.1890    -3.1710    -1.3610 ca         1 F4P      -0.153500
      7 C18          4.4870     2.3870     0.8460 ca         1 F4P      -0.153500
      8 C20          3.5370     2.3970    -1.3940 ca         1 F4P      -0.153500
      9 C5          -6.3800    -1.2820    -0.6560 cc         1 F4P       0.530900
     10 C7          -6.4220     0.7950    -0.5860 cd         1 F4P       0.458400
     11 C11          1.9650    -1.4440     0.3550 ca         1 F4P      -0.105300
     12 C8           2.5540     0.9810     0.3400 ca         1 F4P      -0.105300
     13 C14          2.8230    -4.0100    -0.4320 ca         1 F4P       0.176500
     14 C19          4.4920     2.8580    -0.4750 ca         1 F4P       0.176500
     15 C23         -1.6900     2.0320     0.2200 c6         1 F4P       0.099500
     16 C25         -2.3040    -0.4340     0.2650 c6         1 F4P       0.099500
     17 C22         -0.3170     1.6310     0.8150 c6         1 F4P       0.131800
     18 C26         -0.8820    -0.7020     0.8260 c6         1 F4P       0.131800
     19 C9           1.5120    -0.0470     0.7940 c3         1 F4P       0.284100
     20 N6          -7.2320    -0.2250    -0.8040 nc         1 F4P      -0.700000
     21 N4          -5.1240    -0.9810    -0.3670 nd         1 F4P      -0.527800
     22 N2          -5.1250     0.4170    -0.3100 n          1 F4P      -0.069500
     23 N24         -2.7690     0.9910     0.2620 n          1 F4P      -0.380800
     24 N10          0.1250     0.2870     0.3600 n3         1 F4P      -0.715600
     25 O3          -4.3730     2.5740    -0.1240 o          1 F4P      -0.580100
     26 F28          3.2330    -5.2410    -0.8090 f          1 F4P      -0.177000
     27 F27          5.4200     3.7580    -0.8650 f          1 F4P      -0.177000
     28 H12          2.7740    -1.9670     2.3020 ha         1 F4P       0.121500
     29 H16          1.2670    -1.2450    -1.6920 ha         1 F4P       0.121500
     30 H17          3.5260     1.0880     2.2800 ha         1 F4P       0.121500
     31 H21          1.8300     1.1090    -1.7030 ha         1 F4P       0.121500
     32 H13          3.5250    -4.2330     1.5980 ha         1 F4P       0.133750
     33 H15          2.0290    -3.5130    -2.3800 ha         1 F4P       0.133750
     34 H18          5.2310     2.7480     1.5520 ha         1 F4P       0.133750
     35 H20          3.5470     2.7660    -2.4160 ha         1 F4P       0.133750
     36 H7          -6.7240     1.8360    -0.6150 h5         1 F4P       0.080100
     37 H23         -2.0310     2.9380     0.7390 h1         1 F4P       0.075200
     38 H23A        -1.5340     2.3100    -0.8320 h1         1 F4P       0.075200
     39 H25         -2.3450    -0.8130    -0.7660 h1         1 F4P       0.075200
     40 H25A        -2.9900    -1.0420     0.8700 h1         1 F4P       0.075200
     41 H22          0.4080     2.4080     0.5330 h1         1 F4P       0.050200
     42 H22A        -0.3900     1.6530     1.9120 h1         1 F4P       0.050200
     43 H26         -0.9350    -0.6880     1.9250 h1         1 F4P       0.050200
     44 H26A        -0.5990    -1.7250     0.5410 h1         1 F4P       0.050200
     45 H9           1.5160    -0.0410     1.8930 h1         1 F4P       0.034700
     46 C1          -4.1020     1.3790    -0.0600 c          1 F4P       0.641900
     47 H5          -6.7540    -2.2930    -0.7780 h5         1 F4P       0.067100
@<TRIPOS>BOND
     1     1     5 ar  
     2     1    11 ar  
     3     1    28 1   
     4     2     6 ar  
     5     2    11 ar  
     6     2    29 1   
     7     3     7 ar  
     8     3    12 ar  
     9     3    30 1   
    10     4     8 ar  
    11     4    12 ar  
    12     4    31 1   
    13     5    13 ar  
    14     5    32 1   
    15     6    13 ar  
    16     6    33 1   
    17     7    14 ar  
    18     7    34 1   
    19     8    14 ar  
    20     8    35 1   
    21     9    20 1   
    22     9    21 2   
    23     9    47 1   
    24    10    20 2   
    25    10    22 1   
    26    10    36 1   
    27    11    19 1   
    28    12    19 1   
    29    13    26 1   
    30    14    27 1   
    31    15    17 1   
    32    15    23 1   
    33    15    37 1   
    34    15    38 1   
    35    16    18 1   
    36    16    23 1   
    37    16    39 1   
    38    16    40 1   
    39    17    24 1   
    40    17    41 1   
    41    17    42 1   
    42    18    24 1   
    43    18    43 1   
    44    18    44 1   
    45    19    24 1   
    46    19    45 1   
    47    21    22 1   
    48    22    46 1   
    49    23    46 1   
    50    25    46 2   
@<TRIPOS>SUBSTRUCTURE
     1 F4P         1 TEMP              0 ****  ****    0 ROOT
