@<TRIPOS>MOLECULE
F4P
   47    50     1     0     0
SMALL
abcg2


@<TRIPOS>ATOM
      1 C12          2.0900    -2.1710     1.5160 ca         1 F4P      -0.071000
      2 C16          1.9480    -1.8400    -0.8500 ca         1 F4P      -0.071000
      3 C17          3.2510     1.4330     1.3560 ca         1 F4P      -0.071000
      4 C21          2.5900     1.4800    -0.9430 ca         1 F4P      -0.071000
      5 C13          2.5980    -3.4500     1.3200 ca         1 F4P      -0.153500
      6 C15          2.4470    -3.1140    -1.0680 ca         1 F4P      -0.153500
      7 C18          4.3280     2.2640     1.0780 ca         1 F4P      -0.153500
      8 C20          3.6570     2.3140    -1.2420 ca         1 F4P      -0.153500
      9 C5          -6.2600    -1.0230    -0.4990 cc         1 F4P       0.530900
     10 C7          -5.8210     0.2580     1.0870 cd         1 F4P       0.458400
     11 C11          1.7630    -1.3530     0.4430 ca         1 F4P      -0.105300
     12 C8           2.3760     1.0260     0.3560 ca         1 F4P      -0.105300
     13 C14          2.7670    -3.8970     0.0260 ca         1 F4P       0.176500
     14 C19          4.5120     2.6880    -0.2230 ca         1 F4P       0.176500
     15 C23         -1.6490     1.9700    -0.7000 c6         1 F4P       0.099500
     16 C25         -2.2070    -0.3760    -0.7190 c6         1 F4P       0.099500
     17 C22         -0.4620     1.6730     0.1970 c6         1 F4P       0.131800
     18 C26         -1.0020    -0.6320     0.1700 c6         1 F4P       0.131800
     19 C9           1.2590     0.0560     0.6890 c3         1 F4P       0.284100
     20 N6          -6.7040    -0.6300     0.7200 nc         1 F4P      -0.700000
     21 N4          -5.1600    -0.4400    -0.8920 nd         1 F4P      -0.527800
     22 N2          -4.8720     0.3760     0.1370 n          1 F4P      -0.069500
     23 N24         -2.7010     0.9810    -0.5150 n          1 F4P      -0.380800
     24 N10          0.0520     0.3390    -0.0740 n3         1 F4P      -0.715600
     25 O3          -4.0160     2.3900     0.6960 o          1 F4P      -0.580100
     26 F28          3.2540    -5.1320    -0.1800 f          1 F4P      -0.177000
     27 F27          5.5500     3.4940    -0.5050 f          1 F4P      -0.177000
     28 H12          1.9440    -1.8140     2.5280 ha         1 F4P       0.121500
     29 H16          1.6900    -1.2270    -1.7040 ha         1 F4P       0.121500
     30 H17          3.0960     1.0990     2.3750 ha         1 F4P       0.121500
     31 H21          1.9060     1.1960    -1.7320 ha         1 F4P       0.121500
     32 H13          2.8480    -4.0840     2.1610 ha         1 F4P       0.133750
     33 H15          2.5870    -3.4900    -2.0720 ha         1 F4P       0.133750
     34 H18          5.0060     2.5770     1.8620 ha         1 F4P       0.133750
     35 H20          3.8160     2.6700    -2.2510 ha         1 F4P       0.133750
     36 H7          -5.8110     0.8180     2.0090 h5         1 F4P       0.080100
     37 H23         -2.0310     2.9680    -0.5040 h1         1 F4P       0.075200
     38 H23A        -1.3340     1.9280    -1.7450 h1         1 F4P       0.075200
     39 H25         -1.9290    -0.4890    -1.7690 h1         1 F4P       0.075200
     40 H25A        -2.9710    -1.1140    -0.5020 h1         1 F4P       0.075200
     41 H22          0.3050     2.4210    -0.0010 h1         1 F4P       0.050200
     42 H22A        -0.7580     1.7870     1.2530 h1         1 F4P       0.050200
     43 H26         -1.3260    -0.6240     1.2240 h1         1 F4P       0.050200
     44 H26A        -0.6440    -1.6370    -0.0510 h1         1 F4P       0.050200
     45 H9           1.0620     0.1440     1.7720 h1         1 F4P       0.034700
     46 C1          -3.8130     1.3330     0.1370 c          1 F4P       0.641900
     47 H5          -6.7670    -1.7540    -1.1100 h5         1 F4P       0.067100
@<TRIPOS>BOND
     1     1     5 ar  
     2     1    11 ar  
     3     1    28 1   
     4     2     6 ar  
     5     2    11 ar  
     6     2    29 1   
     7     3     7 ar  
     8     3    12 ar  
     9     3    30 1   
    10     4     8 ar  
    11     4    12 ar  
    12     4    31 1   
    13     5    13 ar  
    14     5    32 1   
    15     6    13 ar  
    16     6    33 1   
    17     7    14 ar  
    18     7    34 1   
    19     8    14 ar  
    20     8    35 1   
    21     9    20 1   
    22     9    21 2   
    23     9    47 1   
    24    10    20 2   
    25    10    22 1   
    26    10    36 1   
    27    11    19 1   
    28    12    19 1   
    29    13    26 1   
    30    14    27 1   
    31    15    17 1   
    32    15    23 1   
    33    15    37 1   
    34    15    38 1   
    35    16    18 1   
    36    16    23 1   
    37    16    39 1   
    38    16    40 1   
    39    17    24 1   
    40    17    41 1   
    41    17    42 1   
    42    18    24 1   
    43    18    43 1   
    44    18    44 1   
    45    19    24 1   
    46    19    45 1   
    47    21    22 1   
    48    22    46 1   
    49    23    46 1   
    50    25    46 2   
@<TRIPOS>SUBSTRUCTURE
     1 F4P         1 TEMP              0 ****  ****    0 ROOT
