@<TRIPOS>MOLECULE
F4R
   42    41     1     0     0
SMALL
abcg2


@<TRIPOS>ATOM
      1 C18         -3.2620     9.1350    22.8020 cs         1 F4R       0.373200
      2 S1          -3.9990     9.4400    24.2550 s          1 F4R      -0.570400
      3 N4          -2.1760     9.7140    22.3450 ns         1 F4R      -0.398900
      4 C19         -1.5780     9.4580    21.0470 c3         1 F4R       0.079000
      5 C20         -1.7700    10.6180    20.0800 c3         1 F4R      -0.100400
      6 C21         -1.1310    10.3280    18.7270 c3         1 F4R      -0.070400
      7 C22         -1.3210    11.4450    17.7040 c3         1 F4R      -0.073400
      8 C23         -0.5320    12.7130    18.0060 c3         1 F4R      -0.076400
      9 C24         -0.7150    13.7940    16.9480 c3         1 F4R      -0.076400
     10 C25          0.1090    15.0460    17.2220 c3         1 F4R      -0.075400
     11 C26         -0.0700    16.1240    16.1600 c3         1 F4R      -0.071400
     12 C27          0.6910    17.4160    16.4420 c3         1 F4R      -0.073400
     13 C37          2.2070    17.2590    16.4770 c3         1 F4R      -0.077400
     14 C38          2.9420    18.5780    16.6740 c3         1 F4R      -0.076400
     15 C39          4.4530    18.4080    16.7480 c3         1 F4R      -0.088100
     16 H1          -3.6690     8.3890    22.1210 h5         1 F4R       0.040200
     17 H3          -2.0240     8.5470    20.6450 h1         1 F4R       0.057200
     18 H4          -0.5140     9.2600    21.1930 h1         1 F4R       0.057200
     19 H5          -1.3470    11.5250    20.5210 hc         1 F4R       0.052700
     20 H6          -2.8410    10.8020    19.9500 hc         1 F4R       0.052700
     21 H7          -1.5620     9.4040    18.3280 hc         1 F4R       0.040200
     22 H8          -0.0620    10.1330    18.8590 hc         1 F4R       0.040200
     23 H9          -2.3860    11.6840    17.6230 hc         1 F4R       0.042200
     24 H10         -1.0210    11.0730    16.7190 hc         1 F4R       0.042200
     25 H11          0.5320    12.4630    18.0860 hc         1 F4R       0.037700
     26 H12         -0.8200    13.1190    18.9810 hc         1 F4R       0.037700
     27 H13         -1.7760    14.0600    16.8810 hc         1 F4R       0.037700
     28 H14         -0.4430    13.3890    15.9660 hc         1 F4R       0.037700
     29 H15          1.1630    14.7640    17.2960 hc         1 F4R       0.038200
     30 H16         -0.1640    15.4540    18.2020 hc         1 F4R       0.038200
     31 H17         -1.1360    16.3540    16.0650 hc         1 F4R       0.037200
     32 H18          0.2390    15.7270    15.1860 hc         1 F4R       0.037200
     33 H19          0.4310    18.1550    15.6770 hc         1 F4R       0.037700
     34 H20          0.3510    17.8380    17.3950 hc         1 F4R       0.037700
     35 H21          2.4940    16.5710    17.2790 hc         1 F4R       0.037200
     36 H22          2.5430    16.7910    15.5440 hc         1 F4R       0.037200
     37 H23          2.6880    19.2620    15.8580 hc         1 F4R       0.036700
     38 H24          2.5830    19.0570    17.5910 hc         1 F4R       0.036700
     39 H25          4.9590    19.3640    16.8840 hc         1 F4R       0.031367
     40 H26          4.7360    17.7630    17.5820 hc         1 F4R       0.031367
     41 H27          4.8430    17.9530    15.8350 hc         1 F4R       0.031367
     42 H2          -1.7480    10.4290    22.9200 hn         1 F4R       0.330500
@<TRIPOS>BOND
     1     1     2 2   
     2     1     3 1   
     3     1    16 1   
     4     3     4 1   
     5     3    42 1   
     6     4     5 1   
     7     4    17 1   
     8     4    18 1   
     9     5     6 1   
    10     5    19 1   
    11     5    20 1   
    12     6     7 1   
    13     6    21 1   
    14     6    22 1   
    15     7     8 1   
    16     7    23 1   
    17     7    24 1   
    18     8     9 1   
    19     8    25 1   
    20     8    26 1   
    21     9    10 1   
    22     9    27 1   
    23     9    28 1   
    24    10    11 1   
    25    10    29 1   
    26    10    30 1   
    27    11    12 1   
    28    11    31 1   
    29    11    32 1   
    30    12    13 1   
    31    12    33 1   
    32    12    34 1   
    33    13    14 1   
    34    13    35 1   
    35    13    36 1   
    36    14    15 1   
    37    14    37 1   
    38    14    38 1   
    39    15    39 1   
    40    15    40 1   
    41    15    41 1   
@<TRIPOS>SUBSTRUCTURE
     1 F4R         1 TEMP              0 ****  ****    0 ROOT
