@<TRIPOS>MOLECULE
F4R
   42    41     1     0     0
SMALL
No Charge or Current Charge


@<TRIPOS>ATOM
      1 C18         -3.3410     9.8830    22.7350 cs         1 F4R       0.373200
      2 S1          -3.8010    10.2300    24.3060 s          1 F4R      -0.570400
      3 N4          -2.0500     9.5810    22.4050 ns         1 F4R      -0.398900
      4 C19         -1.5590     9.2720    21.0620 c3         1 F4R       0.079000
      5 C20         -1.6900    10.4690    20.0970 c3         1 F4R      -0.100400
      6 C21         -1.1380    10.1610    18.6850 c3         1 F4R      -0.070400
      7 C22         -1.3300    11.3030    17.6590 c3         1 F4R      -0.073400
      8 C23         -0.5380    12.5930    17.9790 c3         1 F4R      -0.076400
      9 C24         -0.6850    13.6760    16.8870 c3         1 F4R      -0.076400
     10 C25          0.1020    14.9660    17.2060 c3         1 F4R      -0.075400
     11 C26         -0.0430    16.0470    16.1100 c3         1 F4R      -0.071400
     12 C27          0.6590    17.3880    16.4340 c3         1 F4R      -0.073400
     13 C37          2.2020    17.3010    16.5130 c3         1 F4R      -0.077400
     14 C38          2.8700    18.6730    16.7490 c3         1 F4R      -0.076400
     15 C39          4.4070    18.5890    16.8310 c3         1 F4R      -0.088100
     16 H1          -4.0280     9.8650    21.8860 h5         1 F4R       0.040200
     17 H3          -2.1250     8.4170    20.6690 h1         1 F4R       0.057200
     18 H4          -0.5040     8.9760    21.1360 h1         1 F4R       0.057200
     19 H5          -1.1530    11.3240    20.5250 hc         1 F4R       0.052700
     20 H6          -2.7450    10.7580    20.0150 hc         1 F4R       0.052700
     21 H7          -1.6390     9.2650    18.3000 hc         1 F4R       0.040200
     22 H8          -0.0710     9.9160    18.7570 hc         1 F4R       0.040200
     23 H9          -2.3980    11.5420    17.5800 hc         1 F4R       0.042200
     24 H10         -1.0190    10.9350    16.6730 hc         1 F4R       0.042200
     25 H11          0.5240    12.3440    18.0990 hc         1 F4R       0.037700
     26 H12         -0.8810    13.0080    18.9340 hc         1 F4R       0.037700
     27 H13         -1.7470    13.9220    16.7660 hc         1 F4R       0.037700
     28 H14         -0.3380    13.2710    15.9280 hc         1 F4R       0.037700
     29 H15          1.1610    14.7100    17.3320 hc         1 F4R       0.038200
     30 H16         -0.2460    15.3730    18.1630 hc         1 F4R       0.038200
     31 H17         -1.1110    16.2480    15.9540 hc         1 F4R       0.037200
     32 H18          0.3430    15.6580    15.1600 hc         1 F4R       0.037200
     33 H19          0.3870    18.1140    15.6580 hc         1 F4R       0.037700
     34 H20          0.2680    17.7810    17.3800 hc         1 F4R       0.037700
     35 H21          2.4910    16.6240    17.3260 hc         1 F4R       0.037200
     36 H22          2.5870    16.8680    15.5810 hc         1 F4R       0.037200
     37 H23          2.5940    19.3570    15.9380 hc         1 F4R       0.036700
     38 H24          2.4870    19.1080    17.6800 hc         1 F4R       0.036700
     39 H25          4.8350    19.5840    16.9990 hc         1 F4R       0.031367
     40 H26          4.7160    17.9380    17.6580 hc         1 F4R       0.031367
     41 H27          4.8240    18.1880    15.9000 hc         1 F4R       0.031367
     42 H2          -1.3790     9.5790    23.1680 hn         1 F4R       0.330500
@<TRIPOS>BOND
     1     1     2 2   
     2     1     3 1   
     3     1    16 1   
     4     3     4 1   
     5     3    42 1   
     6     4     5 1   
     7     4    17 1   
     8     4    18 1   
     9     5     6 1   
    10     5    19 1   
    11     5    20 1   
    12     6     7 1   
    13     6    21 1   
    14     6    22 1   
    15     7     8 1   
    16     7    23 1   
    17     7    24 1   
    18     8     9 1   
    19     8    25 1   
    20     8    26 1   
    21     9    10 1   
    22     9    27 1   
    23     9    28 1   
    24    10    11 1   
    25    10    29 1   
    26    10    30 1   
    27    11    12 1   
    28    11    31 1   
    29    11    32 1   
    30    12    13 1   
    31    12    33 1   
    32    12    34 1   
    33    13    14 1   
    34    13    35 1   
    35    13    36 1   
    36    14    15 1   
    37    14    37 1   
    38    14    38 1   
    39    15    39 1   
    40    15    40 1   
    41    15    41 1   
@<TRIPOS>SUBSTRUCTURE
     1 F4R         1 TEMP              0 ****  ****    0 ROOT
