@<TRIPOS>MOLECULE
F4T
   55    57     1     0     0
SMALL
No Charge or Current Charge


@<TRIPOS>ATOM
      1 OAE         29.6340     9.7450    13.3220 o          1 F4T      -0.543000
      2 SBC         30.0670     8.3570    13.1420 sy         1 F4T       1.164600
      3 OAD         31.3170     8.0120    12.4640 o          1 F4T      -0.543000
      4 CAY         28.7410     7.3460    12.4800 ca         1 F4T      -0.359500
      5 CAJ         27.4850     7.9160    12.2040 ca         1 F4T       0.025000
      6 CAG         26.4450     7.1070    11.7190 ca         1 F4T      -0.191000
      7 CAW         26.6480     5.7360    11.5050 ca         1 F4T       0.196100
      8 OAU         25.5850     4.9950    11.0300 os         1 F4T      -0.344100
      9 CAB         25.6850     3.5810    10.7840 c3         1 F4T       0.146900
     10 CAF         27.9110     5.1680    11.7750 ca         1 F4T      -0.191000
     11 CAI         28.9560     5.9730    12.2600 ca         1 F4T       0.025000
     12 NAS         30.3480     7.7560    14.6870 nu         1 F4T      -0.860100
     13 CAZ         29.4230     7.0280    15.4770 ca         1 F4T       0.108000
     14 CAL         29.7250     5.6710    15.7110 ca         1 F4T      -0.024000
     15 CAX         28.8440     4.8270    16.4230 ca         1 F4T      -0.206600
     16 CAV         29.1630     3.3700    16.6550 c          1 F4T       0.615700
     17 OAT         30.3550     2.9700    16.1060 os         1 F4T      -0.454100
     18 CAA         30.7520     1.5960    16.2690 c3         1 F4T       0.154900
     19 OAC         28.4210     2.6190    17.2750 o          1 F4T      -0.497000
     20 CAH         27.6400     5.3630    16.9170 ca         1 F4T       0.003000
     21 CAK         27.3310     6.7140    16.7120 ca         1 F4T      -0.220000
     22 CBA         28.1990     7.5620    16.0040 ca         1 F4T       0.422000
     23 NBB         27.8300     8.9270    15.9000 nh         1 F4T      -0.800400
     24 CAQ         28.7080     9.9790    16.4840 c3         1 F4T       0.230300
     25 CAR         26.5490     9.3170    15.2650 c3         1 F4T       0.230300
     26 CAP         25.4450     9.7960    16.2420 c3         1 F4T      -0.095900
     27 CAN         25.9390    10.4340    17.5650 c3         1 F4T      -0.070900
     28 CAM         26.9010    11.6390    17.4140 c3         1 F4T      -0.070900
     29 CAO         28.1310    11.4180    16.4940 c3         1 F4T      -0.095900
     30 H1          27.3080     8.9790    12.3640 ha         1 F4T       0.135500
     31 H2          25.4740     7.5460    11.5080 ha         1 F4T       0.128500
     32 H3          24.7290     3.1910    10.4140 h1         1 F4T       0.046700
     33 H4          26.4530     3.3690    10.0290 h1         1 F4T       0.046700
     34 H5          25.9380     3.0410    11.7050 h1         1 F4T       0.046700
     35 H6          28.1010     4.1110    11.6190 ha         1 F4T       0.128500
     36 H7          29.9260     5.5240    12.4720 ha         1 F4T       0.135500
     37 H8          31.2550     7.3240    14.5700 hn         1 F4T       0.476000
     38 H9          30.6520     5.2690    15.3100 ha         1 F4T       0.125000
     39 H10         31.7200     1.4180    15.7830 h1         1 F4T       0.047700
     40 H11         30.8540     1.3410    17.3320 h1         1 F4T       0.047700
     41 H12         30.0160     0.9190    15.8170 h1         1 F4T       0.047700
     42 H13         26.9430     4.7370    17.4720 ha         1 F4T       0.134000
     43 H14         26.4100     7.1130    17.1240 ha         1 F4T       0.125000
     44 H15         28.9560     9.7070    17.5190 h1         1 F4T       0.056950
     45 H16         29.6560    10.0100    15.9320 h1         1 F4T       0.056950
     46 H17         26.7370    10.1090    14.5280 h1         1 F4T       0.056950
     47 H18         26.1500     8.4720    14.6860 h1         1 F4T       0.056950
     48 H19         24.7910    10.5010    15.7150 hc         1 F4T       0.045450
     49 H20         24.8190     8.9340    16.5000 hc         1 F4T       0.045450
     50 H21         26.4270     9.6620    18.1720 hc         1 F4T       0.041450
     51 H22         25.0660    10.7570    18.1440 hc         1 F4T       0.041450
     52 H23         27.2590    11.9080    18.4160 hc         1 F4T       0.041450
     53 H24         26.3380    12.5060    17.0470 hc         1 F4T       0.041450
     54 H25         28.9240    12.1030    16.8160 hc         1 F4T       0.045450
     55 H26         27.8870    11.7230    15.4700 hc         1 F4T       0.045450
@<TRIPOS>BOND
     1     1     2 2   
     2     2     3 2   
     3     2     4 1   
     4     2    12 1   
     5     4     5 ar  
     6     4    11 ar  
     7     5     6 ar  
     8     5    30 1   
     9     6     7 ar  
    10     6    31 1   
    11     7     8 1   
    12     7    10 ar  
    13     8     9 1   
    14     9    32 1   
    15     9    33 1   
    16     9    34 1   
    17    10    11 ar  
    18    10    35 1   
    19    11    36 1   
    20    12    13 1   
    21    12    37 1   
    22    13    14 ar  
    23    13    22 ar  
    24    14    15 ar  
    25    14    38 1   
    26    15    16 1   
    27    15    20 ar  
    28    16    17 1   
    29    16    19 2   
    30    17    18 1   
    31    18    39 1   
    32    18    40 1   
    33    18    41 1   
    34    20    21 ar  
    35    20    42 1   
    36    21    22 ar  
    37    21    43 1   
    38    22    23 1   
    39    23    24 1   
    40    23    25 1   
    41    24    29 1   
    42    24    44 1   
    43    24    45 1   
    44    25    26 1   
    45    25    46 1   
    46    25    47 1   
    47    26    27 1   
    48    26    48 1   
    49    26    49 1   
    50    27    28 1   
    51    27    50 1   
    52    27    51 1   
    53    28    29 1   
    54    28    52 1   
    55    28    53 1   
    56    29    54 1   
    57    29    55 1   
@<TRIPOS>SUBSTRUCTURE
     1 F4T         1 TEMP              0 ****  ****    0 ROOT
