@<TRIPOS>MOLECULE
F4T
   55    57     1     0     0
SMALL
abcg2


@<TRIPOS>ATOM
      1 OAE         27.4250     9.1070    12.6800 o          1 F4T      -0.543000
      2 SBC         28.6840     8.4050    12.6300 sy         1 F4T       1.164600
      3 OAD         29.7820     8.9520    11.8660 o          1 F4T      -0.543000
      4 CAY         28.3630     6.7530    12.1130 ca         1 F4T      -0.359500
      5 CAJ         27.0990     6.1990    12.3230 ca         1 F4T       0.025000
      6 CAG         26.8930     4.8550    12.0880 ca         1 F4T      -0.191000
      7 CAW         27.9500     4.0470    11.6510 ca         1 F4T       0.196100
      8 OAU         27.6630     2.7390    11.4830 os         1 F4T      -0.344100
      9 CAB         28.7090     1.8530    11.0700 c3         1 F4T       0.146900
     10 CAF         29.2100     4.6090    11.4210 ca         1 F4T      -0.191000
     11 CAI         29.4120     5.9600    11.6610 ca         1 F4T       0.025000
     12 NAS         29.2540     8.3040    14.1900 nu         1 F4T      -0.860100
     13 CAZ         28.4310     7.6160    15.1450 ca         1 F4T       0.108000
     14 CAL         28.5350     6.2370    15.2080 ca         1 F4T      -0.024000
     15 CAX         27.6510     5.4600    15.9520 ca         1 F4T      -0.206600
     16 CAV         27.6940     3.9920    15.9290 c          1 F4T       0.615700
     17 OAT         28.7300     3.5130    15.2160 os         1 F4T      -0.454100
     18 CAA         28.7990     2.0870    15.0520 c3         1 F4T       0.154900
     19 OAC         26.8790     3.2640    16.4700 o          1 F4T      -0.497000
     20 CAH         26.6340     6.1220    16.6510 ca         1 F4T       0.003000
     21 CAK         26.5380     7.4950    16.6340 ca         1 F4T      -0.220000
     22 CBA         27.4450     8.3090    15.9050 ca         1 F4T       0.422000
     23 NBB         27.3390     9.6660    15.9450 nh         1 F4T      -0.800400
     24 CAQ         28.4980    10.5520    15.7670 c3         1 F4T       0.230300
     25 CAR         26.0980    10.2980    16.3830 c3         1 F4T       0.230300
     26 CAP         26.0220    10.5910    17.9070 c3         1 F4T      -0.095900
     27 CAN         27.3680    10.4530    18.6200 c3         1 F4T      -0.070900
     28 CAM         28.4310    11.4730    18.1840 c3         1 F4T      -0.070900
     29 CAO         28.4610    11.7750    16.6810 c3         1 F4T      -0.095900
     30 H1          26.2910     6.8180    12.6860 ha         1 F4T       0.135500
     31 H2          25.9240     4.4050    12.2570 ha         1 F4T       0.128500
     32 H3          28.2580     0.8660    11.0250 h1         1 F4T       0.046700
     33 H4          29.0890     2.1330    10.0850 h1         1 F4T       0.046700
     34 H5          29.5250     1.8540    11.7960 h1         1 F4T       0.046700
     35 H6          30.0330     4.0040    11.0720 ha         1 F4T       0.128500
     36 H7          30.3930     6.3900    11.5090 ha         1 F4T       0.135500
     37 H8          30.2240     8.0050    14.1790 hn         1 F4T       0.476000
     38 H9          29.2910     5.7560    14.6050 ha         1 F4T       0.125000
     39 H10         29.6810     1.9080    14.4430 h1         1 F4T       0.047700
     40 H11         28.8980     1.5950    16.0190 h1         1 F4T       0.047700
     41 H12         27.9090     1.7220    14.5420 h1         1 F4T       0.047700
     42 H13         25.9220     5.5440    17.2260 ha         1 F4T       0.134000
     43 H14         25.7670     7.9650    17.2240 ha         1 F4T       0.125000
     44 H15         29.3960     9.9770    15.9800 h1         1 F4T       0.056950
     45 H16         28.5670    10.8840    14.7270 h1         1 F4T       0.056950
     46 H17         25.9990    11.2240    15.8180 h1         1 F4T       0.056950
     47 H18         25.2670     9.6660    16.0740 h1         1 F4T       0.056950
     48 H19         25.6240    11.5990    18.0510 hc         1 F4T       0.045450
     49 H20         25.3100     9.9050    18.3720 hc         1 F4T       0.045450
     50 H21         27.7460     9.4410    18.4560 hc         1 F4T       0.041450
     51 H22         27.2090    10.5460    19.6970 hc         1 F4T       0.041450
     52 H23         29.4140    11.1110    18.5000 hc         1 F4T       0.041450
     53 H24         28.2650    12.4170    18.7110 hc         1 F4T       0.041450
     54 H25         29.3540    12.3620    16.4510 hc         1 F4T       0.045450
     55 H26         27.6140    12.4120    16.4180 hc         1 F4T       0.045450
@<TRIPOS>BOND
     1     1     2 2   
     2     2     3 2   
     3     2     4 1   
     4     2    12 1   
     5     4     5 ar  
     6     4    11 ar  
     7     5     6 ar  
     8     5    30 1   
     9     6     7 ar  
    10     6    31 1   
    11     7     8 1   
    12     7    10 ar  
    13     8     9 1   
    14     9    32 1   
    15     9    33 1   
    16     9    34 1   
    17    10    11 ar  
    18    10    35 1   
    19    11    36 1   
    20    12    13 1   
    21    12    37 1   
    22    13    14 ar  
    23    13    22 ar  
    24    14    15 ar  
    25    14    38 1   
    26    15    16 1   
    27    15    20 ar  
    28    16    17 1   
    29    16    19 2   
    30    17    18 1   
    31    18    39 1   
    32    18    40 1   
    33    18    41 1   
    34    20    21 ar  
    35    20    42 1   
    36    21    22 ar  
    37    21    43 1   
    38    22    23 1   
    39    23    24 1   
    40    23    25 1   
    41    24    29 1   
    42    24    44 1   
    43    24    45 1   
    44    25    26 1   
    45    25    46 1   
    46    25    47 1   
    47    26    27 1   
    48    26    48 1   
    49    26    49 1   
    50    27    28 1   
    51    27    50 1   
    52    27    51 1   
    53    28    29 1   
    54    28    52 1   
    55    28    53 1   
    56    29    54 1   
    57    29    55 1   
@<TRIPOS>SUBSTRUCTURE
     1 F4T         1 TEMP              0 ****  ****    0 ROOT
