@<TRIPOS>MOLECULE
F4U
   30    32     1     0     0
SMALL
No Charge or Current Charge


@<TRIPOS>ATOM
      1 N          -28.5050   -18.0240    -8.1740 n          1 F4U      -0.387400
      2 CA         -28.6680   -18.7610    -6.8870 c6         1 F4U       0.038700
      3 C          -29.0050   -20.2750    -7.0170 c          1 F4U       0.572000
      4 O          -28.5540   -20.9700    -7.9150 o          1 F4U      -0.501000
      5 CB         -29.6160   -17.9980    -5.9260 c6         1 F4U      -0.085400
      6 CG         -29.8890   -18.8080    -4.6360 c6         1 F4U      -0.163400
      7 CD         -30.2740   -20.2680    -4.9010 c          1 F4U       0.580000
      8 OE1        -31.0090   -20.8910    -4.1550 o          1 F4U      -0.511000
      9 NE2        -29.7960   -20.8310    -6.0480 ns         1 F4U      -0.478500
     10 CAA        -29.2430   -17.0190   -11.6360 ca         1 F4U      -0.149000
     11 CAB        -28.4870   -16.1300   -12.4300 ca         1 F4U       0.164100
     12 CAC        -27.3160   -15.5270   -11.9170 ca         1 F4U      -0.145000
     13 CAD        -26.8780   -15.7990   -10.6030 ca         1 F4U      -0.002000
     14 CAE        -27.6440   -16.6840    -9.8320 ca         1 F4U      -0.190600
     15 CAF        -28.7940   -17.2790   -10.3310 ca         1 F4U      -0.092600
     16 CAG        -27.4390   -17.1590    -8.4360 c          1 F4U       0.605600
     17 CAI        -29.3680   -18.1560    -9.2680 c          1 F4U       0.591600
     18 OAR        -30.3900   -18.8260    -9.3250 o          1 F4U      -0.480000
     19 OAS        -26.5300   -16.8610    -7.6760 o          1 F4U      -0.487000
     20 OAT        -28.8820   -15.8450   -13.7040 oh         1 F4U      -0.522100
     21 H1         -27.6860   -18.7830    -6.3910 h1         1 F4U       0.101700
     22 H2         -29.1950   -17.0130    -5.6770 hc         1 F4U       0.071700
     23 H3         -30.5720   -17.8070    -6.4350 hc         1 F4U       0.071700
     24 H4         -28.9430   -18.8500    -4.0790 hc         1 F4U       0.082700
     25 H5         -30.6280   -18.3380    -3.9730 hc         1 F4U       0.082700
     26 H6         -30.0330   -21.8020    -6.1860 hn         1 F4U       0.333500
     27 H7         -30.1470   -17.4920   -12.0130 ha         1 F4U       0.141000
     28 H8         -26.7460   -14.8450   -12.5430 ha         1 F4U       0.139000
     29 H9         -25.9770   -15.3370   -10.2030 ha         1 F4U       0.141000
     30 H10        -29.7050   -16.3440   -13.8960 ho         1 F4U       0.477000
@<TRIPOS>BOND
     1     1     2 1   
     2     1    16 1   
     3     1    17 1   
     4     2     3 1   
     5     2     5 1   
     6     2    21 1   
     7     3     4 2   
     8     3     9 1   
     9     5     6 1   
    10     5    22 1   
    11     5    23 1   
    12     6     7 1   
    13     6    24 1   
    14     6    25 1   
    15     7     8 2   
    16     7     9 1   
    17     9    26 1   
    18    10    11 ar  
    19    10    15 ar  
    20    10    27 1   
    21    11    12 ar  
    22    11    20 1   
    23    12    13 ar  
    24    12    28 1   
    25    13    14 ar  
    26    13    29 1   
    27    14    15 ar  
    28    14    16 1   
    29    15    17 1   
    30    16    19 2   
    31    17    18 2   
    32    20    30 1   
@<TRIPOS>SUBSTRUCTURE
     1 F4U         1 TEMP              0 ****  ****    0 ROOT
