@<TRIPOS>MOLECULE
F4U
   30    32     1     0     0
SMALL
bcc


@<TRIPOS>ATOM
      1 N          -28.5220   -17.9570    -8.1060 n          1 F4U      -0.521400
      2 CA         -28.7200   -18.6260    -6.8510 c6         1 F4U       0.038700
      3 C          -28.9150   -20.1150    -7.0920 c          1 F4U       0.714500
      4 O          -28.4660   -20.6860    -8.0550 o          1 F4U      -0.576500
      5 CB         -29.8310   -18.0260    -6.0000 c6         1 F4U      -0.085400
      6 CG         -29.9550   -18.8190    -4.7100 c6         1 F4U      -0.163400
      7 CD         -30.1410   -20.2900    -4.9440 c          1 F4U       0.722500
      8 OE1        -30.6980   -21.0320    -4.1690 o          1 F4U      -0.586500
      9 NE2        -29.6070   -20.7900    -6.1170 ns         1 F4U      -0.612500
     10 CAA        -29.3080   -16.9570   -11.5090 ca         1 F4U      -0.167000
     11 CAB        -28.5040   -16.1810   -12.3540 ca         1 F4U       0.164100
     12 CAC        -27.2570   -15.7120   -11.9200 ca         1 F4U      -0.163000
     13 CAD        -26.7860   -16.0020   -10.6490 ca         1 F4U      -0.020000
     14 CAE        -27.5850   -16.7670    -9.8200 ca         1 F4U      -0.190600
     15 CAF        -28.8160   -17.2260   -10.2540 ca         1 F4U      -0.092600
     16 CAG        -27.3740   -17.2390    -8.4420 c          1 F4U       0.748100
     17 CAI        -29.4290   -18.0050    -9.1520 c          1 F4U       0.734100
     18 OAR        -30.4900   -18.5730    -9.1290 o          1 F4U      -0.555500
     19 OAS        -26.4300   -17.0690    -7.7140 o          1 F4U      -0.562500
     20 OAT        -28.8800   -15.8550   -13.5940 oh         1 F4U      -0.483100
     21 H1         -27.7790   -18.5380    -6.2940 h1         1 F4U       0.101700
     22 H2         -29.5910   -16.9880    -5.7750 hc         1 F4U       0.071700
     23 H3         -30.7780   -18.0350    -6.5390 hc         1 F4U       0.071700
     24 H4         -29.0500   -18.7020    -4.1030 hc         1 F4U       0.082700
     25 H5         -30.7860   -18.4600    -4.1040 hc         1 F4U       0.082700
     26 H6         -29.7110   -21.7890    -6.2640 hn         1 F4U       0.333500
     27 H7         -30.2730   -17.3290   -11.8320 ha         1 F4U       0.159000
     28 H8         -26.6610   -15.1120   -12.5950 ha         1 F4U       0.157000
     29 H9         -25.8210   -15.6330   -10.3280 ha         1 F4U       0.159000
     30 H10        -29.7540   -16.2090   -13.7980 ho         1 F4U       0.438000
@<TRIPOS>BOND
     1     1     2 1   
     2     1    16 1   
     3     1    17 1   
     4     2     3 1   
     5     2     5 1   
     6     2    21 1   
     7     3     4 2   
     8     3     9 1   
     9     5     6 1   
    10     5    22 1   
    11     5    23 1   
    12     6     7 1   
    13     6    24 1   
    14     6    25 1   
    15     7     8 2   
    16     7     9 1   
    17     9    26 1   
    18    10    11 ar  
    19    10    15 ar  
    20    10    27 1   
    21    11    12 ar  
    22    11    20 1   
    23    12    13 ar  
    24    12    28 1   
    25    13    14 ar  
    26    13    29 1   
    27    14    15 ar  
    28    14    16 1   
    29    15    17 1   
    30    16    19 2   
    31    17    18 2   
    32    20    30 1   
@<TRIPOS>SUBSTRUCTURE
     1 F4U         1 TEMP              0 ****  ****    0 ROOT
