@<TRIPOS>MOLECULE
F4W
   29    31     1     0     0
SMALL
bcc


@<TRIPOS>ATOM
      1 OAH          5.5300    -0.7280     0.1400 o          1 F4W      -0.841300
      2 CAQ          5.0520     0.4050    -0.0620 c          1 F4W       0.928600
      3 OAR          5.6940     1.4600    -0.2440 o          1 F4W      -0.841300
      4 CAP          3.5200     0.5480    -0.0940 c3         1 F4W      -0.204400
      5 CAO          2.7650    -0.7490     0.1240 c3         1 F4W      -0.103700
      6 CAN          1.2760    -0.6100     0.0740 cc         1 F4W       0.525900
      7 NAM          0.6960     0.5470     0.1370 nd         1 F4W      -0.609100
      8 CAL         -0.6530     0.5250     0.1010 cd         1 F4W       0.256300
      9 SAK         -1.5940     1.9800     0.1690 ss         1 F4W      -0.040800
     10 CAJ         -3.0540     1.0630     0.0870 cd         1 F4W      -0.131400
     11 CAI         -4.4930     1.4470     0.0130 c5         1 F4W       0.007900
     12 CAB         -5.1780     0.0730     0.2170 c5         1 F4W      -0.079400
     13 CAC         -4.1310    -1.0160    -0.1230 c5         1 F4W      -0.009100
     14 CAD         -2.8400    -0.2710     0.0090 cc         1 F4W      -0.035300
     15 CAE         -1.4570    -0.5990     0.0140 cc         1 F4W      -0.255600
     16 CAF         -0.8150    -1.8820    -0.0560 c          1 F4W       0.740100
     17 OAA         -1.3610    -2.9690    -0.1420 o          1 F4W      -0.643500
     18 NAG          0.5690    -1.7690    -0.0220 ns         1 F4W      -0.488400
     19 H2           3.2260     1.2850     0.6580 hc         1 F4W       0.038200
     20 H3           3.2330     0.9880    -1.0540 hc         1 F4W       0.038200
     21 H4           3.0680    -1.4980    -0.6120 hc         1 F4W       0.068700
     22 H5           3.0230    -1.1790     1.0980 hc         1 F4W       0.068700
     23 H7          -4.7930     2.1740     0.7690 hc         1 F4W       0.044700
     24 H8          -4.7310     1.8830    -0.9620 hc         1 F4W       0.044700
     25 H9          -5.4720    -0.0260     1.2620 hc         1 F4W       0.037200
     26 H10         -6.0820    -0.0230    -0.3840 hc         1 F4W       0.037200
     27 H11         -4.2020    -1.8750     0.5450 hc         1 F4W       0.058700
     28 H12         -4.2540    -1.3960    -1.1410 hc         1 F4W       0.058700
     29 H6           1.0900    -2.6360    -0.0760 hn         1 F4W       0.330500
@<TRIPOS>BOND
     1     1     2 1   
     2     2     3 1   
     3     2     4 1   
     4     4     5 1   
     5     4    19 1   
     6     4    20 1   
     7     5     6 1   
     8     5    21 1   
     9     5    22 1   
    10     6     7 2   
    11     6    18 1   
    12     7     8 1   
    13     8     9 1   
    14     8    15 2   
    15     9    10 1   
    16    10    11 1   
    17    10    14 2   
    18    11    12 1   
    19    11    23 1   
    20    11    24 1   
    21    12    13 1   
    22    12    25 1   
    23    12    26 1   
    24    13    14 1   
    25    13    27 1   
    26    13    28 1   
    27    14    15 1   
    28    15    16 1   
    29    16    17 2   
    30    16    18 1   
    31    18    29 1   
@<TRIPOS>SUBSTRUCTURE
     1 F4W         1 TEMP              0 ****  ****    0 ROOT
