@<TRIPOS>MOLECULE
F4W
   29    31     1     0     0
SMALL
No Charge or Current Charge


@<TRIPOS>ATOM
      1 OAH          5.5450    -1.3160     0.4560 o          1 F4W      -0.736000
      2 CAQ          5.0270    -0.2120     0.4060 c          1 F4W       0.718000
      3 OAR          5.6290     0.8070     0.1050 o          1 F4W      -0.736000
      4 CAP          3.5150    -0.1110     0.6590 c3         1 F4W      -0.204400
      5 CAO          2.7310    -0.3000    -0.6710 c3         1 F4W      -0.103700
      6 CAN          1.2340    -0.1950    -0.5220 cc         1 F4W       0.525900
      7 NAM          0.5770     0.9040    -0.9010 nd         1 F4W      -0.609100
      8 CAL         -0.8050     0.8610    -0.6980 cd         1 F4W       0.111400
      9 SAK         -1.9560     2.1730    -1.1150 ss         1 F4W       0.249000
     10 CAJ         -3.2580     1.1500    -0.4920 cd         1 F4W      -0.276300
     11 CAI         -4.7600     1.1860    -0.3810 c5         1 F4W       0.007900
     12 CAB         -5.1140    -0.0630     0.5270 c5         1 F4W      -0.079400
     13 CAC         -3.8390    -0.9820     0.4660 c5         1 F4W      -0.009100
     14 CAD         -2.8160    -0.0350    -0.0510 cc         1 F4W      -0.035300
     15 CAE         -1.4150    -0.2470    -0.1480 cc         1 F4W      -0.255600
     16 CAF         -0.6740    -1.4430     0.2540 c          1 F4W       0.597600
     17 OAA         -1.1460    -2.4590     0.7400 o          1 F4W      -0.568000
     18 NAG          0.6490    -1.3070     0.0220 ns         1 F4W      -0.421400
     19 H2           3.1890    -0.9190     1.3250 hc         1 F4W       0.038200
     20 H3           3.2560     0.8910     1.0210 hc         1 F4W       0.038200
     21 H4           3.0740     0.4510    -1.3940 hc         1 F4W       0.068700
     22 H5           2.9870    -1.2730    -1.1090 hc         1 F4W       0.068700
     23 H7          -5.1260     2.1200     0.0580 hc         1 F4W       0.044700
     24 H8          -5.2280     1.0960    -1.3680 hc         1 F4W       0.044700
     25 H9          -5.2960     0.2610     1.5590 hc         1 F4W       0.037200
     26 H10         -6.0200    -0.5810     0.1930 hc         1 F4W       0.037200
     27 H11         -3.5790    -1.3870     1.4500 hc         1 F4W       0.058700
     28 H12         -3.9770    -1.8240    -0.2220 hc         1 F4W       0.058700
     29 H6           1.2290    -2.0910     0.2790 hn         1 F4W       0.330500
@<TRIPOS>BOND
     1     1     2 1   
     2     2     3 1   
     3     2     4 1   
     4     4     5 1   
     5     4    19 1   
     6     4    20 1   
     7     5     6 1   
     8     5    21 1   
     9     5    22 1   
    10     6     7 2   
    11     6    18 1   
    12     7     8 1   
    13     8     9 1   
    14     8    15 2   
    15     9    10 1   
    16    10    11 1   
    17    10    14 2   
    18    11    12 1   
    19    11    23 1   
    20    11    24 1   
    21    12    13 1   
    22    12    25 1   
    23    12    26 1   
    24    13    14 1   
    25    13    27 1   
    26    13    28 1   
    27    14    15 1   
    28    15    16 1   
    29    16    17 2   
    30    16    18 1   
    31    18    29 1   
@<TRIPOS>SUBSTRUCTURE
     1 F4W         1 TEMP              0 ****  ****    0 ROOT
