@<TRIPOS>MOLECULE
F4Z
   12    12     1     0     0
SMALL
abcg2


@<TRIPOS>ATOM
      1 C01         -0.4820     1.2260     0.0340 ca         1 F4Z      -0.026000
      2 C02         -1.5630     0.3830    -0.0770 ca         1 F4Z       0.031000
      3 C03         -1.3330    -0.9930    -0.1960 ca         1 F4Z       0.619300
      4 O04         -2.3670    -1.8100    -0.3020 oh         1 F4Z      -0.619300
      5 N05         -0.1130    -1.4840    -0.2040 nb         1 F4Z      -0.759000
      6 C06          0.9220    -0.6830    -0.0990 ca         1 F4Z       0.496000
      7 C07          0.8020     0.6910     0.0240 ca         1 F4Z       0.027000
      8 CL8          2.1680     1.7180     0.1620 cl         1 F4Z      -0.145000
      9 CL9          2.4760    -1.4210    -0.1200 cl         1 F4Z      -0.126000
     10 CL1         -3.1700     0.9880    -0.0700 cl         1 F4Z      -0.146000
     11 H1          -0.6260     2.2930     0.1290 ha         1 F4Z       0.152000
     12 H2          -2.0550    -2.7230    -0.3630 ho         1 F4Z       0.497000
@<TRIPOS>BOND
     1     1     2 ar  
     2     1     7 ar  
     3     1    11 1   
     4     2     3 ar  
     5     2    10 1   
     6     3     4 1   
     7     3     5 ar  
     8     4    12 1   
     9     5     6 ar  
    10     6     7 ar  
    11     6     9 1   
    12     7     8 1   
@<TRIPOS>SUBSTRUCTURE
     1 F4Z         1 TEMP              0 ****  ****    0 ROOT
