@<TRIPOS>MOLECULE
F4Z
   12    12     1     0     0
SMALL
No Charge or Current Charge


@<TRIPOS>ATOM
      1 C01         -0.4950     1.2640     0.0370 ca         1 F4Z      -0.026000
      2 C02         -1.6040     0.4100    -0.0740 ca         1 F4Z       0.031000
      3 C03         -1.3700    -0.9810    -0.1930 ca         1 F4Z       0.619300
      4 O04         -2.3630    -1.8770    -0.3050 oh         1 F4Z      -0.619300
      5 N05         -0.1580    -1.5480    -0.2090 nb         1 F4Z      -0.759000
      6 C06          0.9060    -0.7140    -0.1010 ca         1 F4Z       0.496000
      7 C07          0.7890     0.6920     0.0240 ca         1 F4Z       0.027000
      8 Cl8          2.2080     1.7340     0.1610 cl         1 F4Z      -0.145000
      9 Cl9          2.4820    -1.4980    -0.1240 cl         1 F4Z      -0.126000
     10 Cl1         -3.2380     1.0850    -0.0620 cl         1 F4Z      -0.146000
     11 H1          -0.6260     2.3390     0.1310 ha         1 F4Z       0.152000
     12 H2          -1.8730    -2.7220    -0.3670 ho         1 F4Z       0.497000
@<TRIPOS>BOND
     1     1     2 ar  
     2     1     7 ar  
     3     1    11 1   
     4     2     3 ar  
     5     2    10 1   
     6     3     4 1   
     7     3     5 ar  
     8     4    12 1   
     9     5     6 ar  
    10     6     7 ar  
    11     6     9 1   
    12     7     8 1   
@<TRIPOS>SUBSTRUCTURE
     1 F4Z         1 TEMP              0 ****  ****    0 ROOT
