@<TRIPOS>MOLECULE
F50
    9     8     1     0     0
SMALL
abcg2


@<TRIPOS>ATOM
      1 C            0.4770     0.1040     0.1600 c          1 F50       0.585100
      2 OX1         -1.7850    -0.0570     0.1690 oh         1 F50      -0.408000
      3 O            0.3720     1.2620     0.4440 o          1 F50      -0.433000
      4 OXT         -0.5640    -0.7270    -0.0100 os         1 F50      -0.250100
      5 CH3          1.7620    -0.6410    -0.0450 c3         1 F50      -0.169100
      6 HX1         -2.3360    -0.5380    -0.4650 ho         1 F50       0.456000
      7 HH31         2.3850    -0.5210     0.8400 hc         1 F50       0.073367
      8 HH32         1.6210    -1.7020    -0.2360 hc         1 F50       0.073367
      9 HH33         2.2920    -0.1990    -0.8890 hc         1 F50       0.073367
@<TRIPOS>BOND
     1     1     3 2   
     2     1     4 1   
     3     1     5 1   
     4     2     4 1   
     5     2     6 1   
     6     5     7 1   
     7     5     8 1   
     8     5     9 1   
@<TRIPOS>SUBSTRUCTURE
     1 F50         1 TEMP              0 ****  ****    0 ROOT
