@<TRIPOS>MOLECULE
F50
    9     8     1     0     0
SMALL
No Charge or Current Charge


@<TRIPOS>ATOM
      1 C            0.4420     0.0720    -0.0680 c          1 F50       0.585100
      2 OX1         -1.8790    -0.1190     0.5630 oh         1 F50      -0.408000
      3 O            0.2250     1.1710    -0.5630 o          1 F50      -0.433000
      4 OXT         -0.5150    -0.7320     0.5220 os         1 F50      -0.250100
      5 CH3          1.8130    -0.5930    -0.0670 c3         1 F50      -0.169100
      6 HX1         -2.2530    -0.4140    -0.2990 ho         1 F50       0.456000
      7 HH31         2.0830    -0.8450     0.9640 hc         1 F50       0.073367
      8 HH32         1.7280    -1.5810    -0.5330 hc         1 F50       0.073367
      9 HH33         2.5800     0.0220    -0.5520 hc         1 F50       0.073367
@<TRIPOS>BOND
     1     1     3 2   
     2     1     4 1   
     3     1     5 1   
     4     2     4 1   
     5     2     6 1   
     6     5     7 1   
     7     5     8 1   
     8     5     9 1   
@<TRIPOS>SUBSTRUCTURE
     1 F50         1 TEMP              0 ****  ****    0 ROOT
