@<TRIPOS>MOLECULE
F51
   41    44     1     0     0
SMALL
abcg2


@<TRIPOS>ATOM
      1 N10          4.6690    -3.0250     0.1950 nb         1 F51      -0.683000
      2 C11          3.3870    -2.7880     0.1490 ca         1 F51       0.351900
      3 C12          2.8310    -1.4880     0.0710 ca         1 F51       0.202000
      4 C02          1.7740     1.0360    -0.0940 ca         1 F51      -0.112300
      5 C03          3.1430     0.9090    -0.0460 ca         1 F51      -0.070600
      6 C04          4.0560     2.1250    -0.0960 c          1 F51       0.715600
      7 C07          3.7090    -0.3880     0.0380 ca         1 F51      -0.034000
      8 C08          5.0930    -0.6660     0.0840 ca         1 F51      -0.085000
      9 C09          5.5100    -1.9660     0.1630 ca         1 F51       0.270900
     10 C14          0.9810    -0.1520    -0.0230 cp         1 F51       0.400500
     11 C15         -0.5010    -0.1030    -0.0290 cp         1 F51      -0.108500
     12 C16         -1.2120     0.7170     0.8440 ca         1 F51      -0.088500
     13 C17         -2.5970     0.7090     0.8550 ca         1 F51      -0.109500
     14 C18         -3.3180    -0.1130    -0.0130 cp         1 F51      -0.055000
     15 C19         -4.7950    -0.1110    -0.0090 cp         1 F51      -0.015000
     16 C20         -5.5110    -1.2940    -0.2010 ca         1 F51      -0.103500
     17 C21         -6.8990    -1.2920    -0.1960 ca         1 F51      -0.115000
     18 C22         -7.5960    -0.1070     0.0010 ca         1 F51      -0.120000
     19 C23         -6.8940     1.0760     0.1930 ca         1 F51      -0.115000
     20 C24         -5.5070     1.0730     0.1880 ca         1 F51      -0.103500
     21 C25         -2.6010    -0.9360    -0.8830 ca         1 F51      -0.109500
     22 C26         -1.2170    -0.9390    -0.8840 ca         1 F51      -0.088500
     23 N13          1.4920    -1.3570     0.0410 nb         1 F51      -0.691000
     24 O05          4.6480     2.3090    -1.1720 o          1 F51      -0.701000
     25 O06          4.1140     2.7930     0.9470 o          1 F51      -0.701000
     26 H1           2.7090    -3.6370     0.1760 h4         1 F51       0.013100
     27 H2           0.9890     2.8790     0.7100 hc         1 F51       0.042367
     28 H3           1.7830     3.0470    -0.8470 hc         1 F51       0.042367
     29 H4           0.1820     2.3350    -0.7540 hc         1 F51       0.042367
     30 H5           5.8250     0.1290     0.0540 ha         1 F51       0.148000
     31 H6           6.5670    -2.1990     0.2020 h4         1 F51       0.003100
     32 H7          -0.6860     1.3520     1.5450 ha         1 F51       0.126000
     33 H8          -3.1200     1.3340     1.5680 ha         1 F51       0.105500
     34 H9          -4.9820    -2.2290    -0.3370 ha         1 F51       0.116000
     35 H10         -7.4360    -2.2210    -0.3400 ha         1 F51       0.105500
     36 H11         -8.6780    -0.1060     0.0050 ha         1 F51       0.104000
     37 H12         -7.4280     2.0050     0.3410 ha         1 F51       0.105500
     38 H13         -4.9740     2.0070     0.3190 ha         1 F51       0.116000
     39 H14         -3.1290    -1.5720    -1.5840 ha         1 F51       0.105500
     40 H15         -0.6850    -1.5850    -1.5710 ha         1 F51       0.126000
     41 C01          1.1470     2.3920    -0.2540 c3         1 F51      -0.034800
@<TRIPOS>BOND
     1     1     2 ar  
     2     1     9 ar  
     3     2     3 ar  
     4     2    26 1   
     5     3     7 ar  
     6     3    23 ar  
     7     4     5 ar  
     8     4    10 ar  
     9     4    41 1   
    10     5     6 1   
    11     5     7 ar  
    12     6    24 1   
    13     6    25 1   
    14     7     8 ar  
    15     8     9 ar  
    16     8    30 1   
    17     9    31 1   
    18    10    11 1   
    19    10    23 ar  
    20    11    12 ar  
    21    11    22 ar  
    22    12    13 ar  
    23    12    32 1   
    24    13    14 ar  
    25    13    33 1   
    26    14    15 1   
    27    14    21 ar  
    28    15    16 ar  
    29    15    20 ar  
    30    16    17 ar  
    31    16    34 1   
    32    17    18 ar  
    33    17    35 1   
    34    18    19 ar  
    35    18    36 1   
    36    19    20 ar  
    37    19    37 1   
    38    20    38 1   
    39    21    22 ar  
    40    21    39 1   
    41    22    40 1   
    42    27    41 1   
    43    28    41 1   
    44    29    41 1   
@<TRIPOS>SUBSTRUCTURE
     1 F51         1 TEMP              0 ****  ****    0 ROOT
