@<TRIPOS>MOLECULE
F51
   41    44     1     0     0
SMALL
No Charge or Current Charge


@<TRIPOS>ATOM
      1 N10          4.8400    -3.0350     0.2440 nb         1 F51      -0.683000
      2 C11          3.4990    -2.8170     0.1800 ca         1 F51       0.351900
      3 C12          2.8960    -1.5320     0.0810 ca         1 F51       0.202000
      4 C02          1.8030     1.0230    -0.1240 ca         1 F51      -0.112300
      5 C03          3.2150     0.8890    -0.0660 ca         1 F51      -0.070600
      6 C04          4.1130     2.1010    -0.1170 c          1 F51       0.715600
      7 C07          3.7620    -0.4120     0.0430 ca         1 F51      -0.034000
      8 C08          5.1560    -0.6380     0.1120 ca         1 F51      -0.085000
      9 C09          5.6440    -1.9510     0.2110 ca         1 F51       0.270900
     10 C14          1.0010    -0.1530    -0.0430 cp         1 F51       0.400500
     11 C15         -0.5010    -0.1300    -0.0360 cp         1 F51      -0.108500
     12 C16         -1.2240     0.6970     0.8590 ca         1 F51      -0.088500
     13 C17         -2.6290     0.7060     0.8660 ca         1 F51      -0.109500
     14 C18         -3.3740    -0.1170    -0.0140 cp         1 F51      -0.055000
     15 C19         -4.8720    -0.1060    -0.0060 cp         1 F51      -0.015000
     16 C20         -5.6170    -1.2870    -0.2580 ca         1 F51      -0.103500
     17 C21         -7.0230    -1.2760    -0.2500 ca         1 F51      -0.115000
     18 C22         -7.7150    -0.0830     0.0100 ca         1 F51      -0.120000
     19 C23         -7.0010     1.0990     0.2620 ca         1 F51      -0.115000
     20 C24         -5.5950     1.0870     0.2550 ca         1 F51      -0.103500
     21 C25         -2.6500    -0.9560    -0.8970 ca         1 F51      -0.109500
     22 C26         -1.2450    -0.9660    -0.9050 ca         1 F51      -0.088500
     23 N13          1.5480    -1.3870     0.0300 nb         1 F51      -0.691000
     24 O05          4.6910     2.3460    -1.1670 o          1 F51      -0.701000
     25 O06          4.2400     2.7660     0.9010 o          1 F51      -0.701000
     26 H1           2.8770    -3.7100     0.2120 h4         1 F51       0.013100
     27 H2           1.0560     2.9140     0.6670 hc         1 F51       0.042367
     28 H3           1.7960     3.0600    -0.9350 hc         1 F51       0.042367
     29 H4           0.1980     2.3640    -0.7850 hc         1 F51       0.042367
     30 H5           5.8710     0.1800     0.0910 ha         1 F51       0.148000
     31 H6           6.7150    -2.1420     0.2640 h4         1 F51       0.003100
     32 H7          -0.6890     1.3280     1.5650 ha         1 F51       0.126000
     33 H8          -3.1440     1.3480     1.5760 ha         1 F51       0.105500
     34 H9          -5.1010    -2.2240    -0.4480 ha         1 F51       0.116000
     35 H10         -7.5740    -2.1940    -0.4430 ha         1 F51       0.105500
     36 H11         -8.8030    -0.0740     0.0160 ha         1 F51       0.104000
     37 H12         -7.5350     2.0250     0.4610 ha         1 F51       0.105500
     38 H13         -5.0620     2.0160     0.4390 ha         1 F51       0.116000
     39 H14         -3.1820    -1.5980    -1.5950 ha         1 F51       0.105500
     40 H15         -0.7230    -1.6210    -1.5990 ha         1 F51       0.126000
     41 C01          1.1800     2.4130    -0.3000 c3         1 F51      -0.034800
@<TRIPOS>BOND
     1     1     2 ar  
     2     1     9 ar  
     3     2     3 ar  
     4     2    26 1   
     5     3     7 ar  
     6     3    23 ar  
     7     4     5 ar  
     8     4    10 ar  
     9     4    41 1   
    10     5     6 1   
    11     5     7 ar  
    12     6    24 1   
    13     6    25 1   
    14     7     8 ar  
    15     8     9 ar  
    16     8    30 1   
    17     9    31 1   
    18    10    11 1   
    19    10    23 ar  
    20    11    12 ar  
    21    11    22 ar  
    22    12    13 ar  
    23    12    32 1   
    24    13    14 ar  
    25    13    33 1   
    26    14    15 1   
    27    14    21 ar  
    28    15    16 ar  
    29    15    20 ar  
    30    16    17 ar  
    31    16    34 1   
    32    17    18 ar  
    33    17    35 1   
    34    18    19 ar  
    35    18    36 1   
    36    19    20 ar  
    37    19    37 1   
    38    20    38 1   
    39    21    22 ar  
    40    21    39 1   
    41    22    40 1   
    42    27    41 1   
    43    28    41 1   
    44    29    41 1   
@<TRIPOS>SUBSTRUCTURE
     1 F51         1 TEMP              0 ****  ****    0 ROOT
