@<TRIPOS>MOLECULE
F52
   18    18     1     0     0
SMALL
bcc


@<TRIPOS>ATOM
      1 O01          4.7380     1.8530    -0.0510 o          1 F52      -0.808800
      2 C02          4.0800     0.7950    -0.0580 c          1 F52       0.941600
      3 O03          4.4950    -0.3700    -0.0860 o          1 F52      -0.808800
      4 C04          2.5610     1.0320    -0.0320 c3         1 F52      -0.028600
      5 O05          1.8570    -0.2020    -0.0060 os         1 F52      -0.241900
      6 C06          0.5290    -0.1770    -0.0150 ca         1 F52       0.200100
      7 C07         -0.2430     0.9810    -0.0230 ca         1 F52      -0.230000
      8 C08         -1.6290     0.9070    -0.0370 ca         1 F52       0.075400
      9 CL1         -2.5350     2.3700    -0.0480 cl         1 F52      -0.108400
     10 C10         -2.2720    -0.3210    -0.0410 ca         1 F52      -0.041600
     11 CL2         -3.9900    -0.4310    -0.0610 cl         1 F52      -0.115400
     12 C12         -1.5140    -1.4840    -0.0300 ca         1 F52      -0.079000
     13 C13         -0.1370    -1.4110    -0.0170 ca         1 F52      -0.032600
     14 CL3          0.7950    -2.8600    -0.0040 cl         1 F52      -0.079400
     15 H2           2.3030     1.6330     0.8480 h1         1 F52       0.023700
     16 H3           2.2740     1.6120    -0.9170 h1         1 F52       0.023700
     17 H4           0.2220     1.9560    -0.0190 ha         1 F52       0.163000
     18 H5          -2.0040    -2.4470    -0.0330 ha         1 F52       0.148000
@<TRIPOS>BOND
     1     1     2 1   
     2     2     3 1   
     3     2     4 1   
     4     4     5 1   
     5     4    15 1   
     6     4    16 1   
     7     5     6 1   
     8     6     7 ar  
     9     6    13 ar  
    10     7     8 ar  
    11     7    17 1   
    12     8     9 1   
    13     8    10 ar  
    14    10    11 1   
    15    10    12 ar  
    16    12    13 ar  
    17    12    18 1   
    18    13    14 1   
@<TRIPOS>SUBSTRUCTURE
     1 F52         1 TEMP              0 ****  ****    0 ROOT
