@<TRIPOS>MOLECULE
F52
   18    18     1     0     0
SMALL
No Charge or Current Charge


@<TRIPOS>ATOM
      1 O01          4.8800     1.8300    -0.0450 o          1 F52      -0.703500
      2 C02          4.1630     0.8380    -0.0410 c          1 F52       0.731000
      3 O03          4.6050    -0.3050    -0.0380 o          1 F52      -0.703500
      4 C04          2.6250     1.0640    -0.0400 c3         1 F52      -0.005400
      5 O05          1.8710    -0.1720    -0.0350 os         1 F52      -0.265100
      6 C06          0.4880    -0.1990    -0.0340 ca         1 F52       0.200100
      7 C07         -0.2830     0.9850    -0.0370 ca         1 F52      -0.212000
      8 C08         -1.6860     0.9130    -0.0350 ca         1 F52       0.167000
      9 Cl1         -2.6130     2.4140    -0.0390 cl         1 F52      -0.200000
     10 C10         -2.3320    -0.3400    -0.0300 ca         1 F52       0.050000
     11 Cl2         -4.0930    -0.4610    -0.0280 cl         1 F52      -0.207000
     12 C12         -1.5690    -1.5190    -0.0270 ca         1 F52      -0.061000
     13 C13         -0.1650    -1.4510    -0.0290 ca         1 F52       0.059000
     14 Cl3          0.7620    -2.9530    -0.0250 cl         1 F52      -0.171000
     15 H2           2.3790     1.6610     0.8470 h1         1 F52       0.023700
     16 H3           2.3770     1.6550    -0.9320 h1         1 F52       0.023700
     17 H4           0.1860     1.9640    -0.0410 ha         1 F52       0.145000
     18 H5          -2.0650    -2.4860    -0.0230 ha         1 F52       0.130000
@<TRIPOS>BOND
     1     1     2 1   
     2     2     3 1   
     3     2     4 1   
     4     4     5 1   
     5     4    15 1   
     6     4    16 1   
     7     5     6 1   
     8     6     7 ar  
     9     6    13 ar  
    10     7     8 ar  
    11     7    17 1   
    12     8     9 1   
    13     8    10 ar  
    14    10    11 1   
    15    10    12 ar  
    16    12    13 ar  
    17    12    18 1   
    18    13    14 1   
@<TRIPOS>SUBSTRUCTURE
     1 F52         1 TEMP              0 ****  ****    0 ROOT
