@<TRIPOS>MOLECULE
F53
   83    86     1     0     0
SMALL
abcg2


@<TRIPOS>ATOM
      1 C1          14.0470    35.3890    18.4320 c3         1 F53       0.198900
      2 O1          14.5980    35.2120    19.7470 oh         1 F53      -0.661000
      3 C2          14.9700    34.7250    17.4500 ca         1 F53      -0.032300
      4 C3          16.0470    35.4260    16.9090 ca         1 F53      -0.109000
      5 C4          16.9260    34.8120    16.0290 ca         1 F53      -0.020000
      6 C5          16.7190    33.4770    15.6840 ca         1 F53      -0.307500
      7 C6          15.6470    32.7610    16.2090 ca         1 F53      -0.020000
      8 C7          14.7780    33.3910    17.0900 ca         1 F53      -0.109000
      9 O8          22.5030    24.8960    10.5360 os         1 F53      -0.447000
     10 S8          17.8830    32.6610    14.6260 sy         1 F53       1.193600
     11 O9          18.4940    33.6620    13.7840 o          1 F53      -0.544500
     12 O10         17.2160    31.5380    14.0110 o          1 F53      -0.544500
     13 N11         19.0600    32.0580    15.6020 n3         1 F53      -0.750500
     14 C12         19.9280    33.0550    16.2650 c3         1 F53       0.204800
     15 C13         21.3830    32.6000    16.4140 c3         1 F53      -0.058700
     16 C14         22.0160    32.2910    15.0540 c3         1 F53      -0.075900
     17 C15         22.1630    33.6360    17.2450 c3         1 F53      -0.075900
     18 C16         18.7430    30.8520    16.3810 c3         1 F53       0.214800
     19 C17         19.6450    29.6680    16.0290 c3         1 F53       0.152300
     20 C18         22.3950    34.9900    16.5720 c3         1 F53      -0.087600
     21 O18         19.3670    28.6740    17.0170 oh         1 F53      -0.670000
     22 C19         19.4590    29.1520    14.5930 c3         1 F53       0.098700
     23 C20         23.3920    31.6380    15.1490 c3         1 F53      -0.087600
     24 N20         20.5970    28.3330    14.2050 ns         1 F53      -0.502900
     25 C21         21.4450    28.6830    13.2200 c          1 F53       0.635100
     26 O22         21.4210    29.7300    12.5930 o          1 F53      -0.538000
     27 O23         22.3580    27.7010    13.0150 os         1 F53      -0.460100
     28 C24         23.3020    27.8930    11.9430 c5         1 F53       0.160300
     29 C25         24.5360    27.0750    12.2750 c5         1 F53       0.152600
     30 O26         24.2530    25.7550    11.8060 os         1 F53      -0.467000
     31 C27         23.5080    25.8700    10.5910 c5         1 F53       0.367300
     32 C29         21.2650    25.4870    10.9890 c5         1 F53       0.150600
     33 C30         21.3330    26.9260    10.4930 c5         1 F53      -0.094400
     34 C31         22.8250    27.2630    10.6190 c5         1 F53      -0.141700
     35 C32         18.1490    28.3840    14.3810 c3         1 F53      -0.038100
     36 C33         18.0050    26.5620    12.6420 ca         1 F53      -0.101500
     37 C34         17.8500    26.1280    11.3290 ca         1 F53      -0.116000
     38 C35         17.6730    27.0510    10.3060 ca         1 F53      -0.115000
     39 C36         17.6480    28.4110    10.6060 ca         1 F53      -0.116000
     40 C37         17.7960    28.8400    11.9200 ca         1 F53      -0.101500
     41 C38         17.9750    27.9200    12.9570 ca         1 F53      -0.084300
     42 H1          13.0530    34.9360    18.3750 h1         1 F53       0.034200
     43 H1A         13.9590    36.4540    18.2000 h1         1 F53       0.034200
     44 HO1         14.0070    35.6460    20.3760 ho         1 F53       0.445000
     45 H3          16.1960    36.4660    17.1730 ha         1 F53       0.121000
     46 H4          17.7520    35.3630    15.6030 ha         1 F53       0.134000
     47 H6          15.4850    31.7320    15.9210 ha         1 F53       0.134000
     48 H7          13.9370    32.8430    17.4950 ha         1 F53       0.121000
     49 H12         19.8960    33.9620    15.6670 h1         1 F53       0.054200
     50 H12A        19.5110    33.2840    17.2510 h1         1 F53       0.054200
     51 H13         21.3870    31.6800    17.0060 hc         1 F53       0.043700
     52 H14         21.3510    31.6290    14.4990 hc         1 F53       0.048200
     53 H14A        22.0800    33.2120    14.4660 hc         1 F53       0.048200
     54 H15         21.6290    33.7880    18.1880 hc         1 F53       0.048200
     55 H15A        23.1300    33.2030    17.5130 hc         1 F53       0.048200
     56 H16         18.8740    31.0800    17.4410 h1         1 F53       0.065200
     57 H16A        17.7030    30.5710    16.2350 h1         1 F53       0.065200
     58 H17         20.6860    29.9810    16.1160 h1         1 F53       0.055700
     59 H18         22.9230    35.6630    17.2510 hc         1 F53       0.032033
     60 H18A        22.9990    34.8920    15.6690 hc         1 F53       0.032033
     61 H18B        21.4570    35.4750    16.2940 hc         1 F53       0.032033
     62 HO18        20.0680    28.0110    16.9980 ho         1 F53       0.449000
     63 H19         19.4790    30.0190    13.9370 h1         1 F53       0.101700
     64 H20         23.7700    31.3860    14.1560 hc         1 F53       0.032033
     65 H20A        24.1240    32.2910    15.6270 hc         1 F53       0.032033
     66 H20B        23.3400    30.7130    15.7290 hc         1 F53       0.032033
     67 HN20        20.6800    27.3990    14.5770 hn         1 F53       0.322500
     68 H24         23.5090    28.9540    11.8480 h1         1 F53       0.086700
     69 H25         25.4070    27.4900    11.7550 h1         1 F53       0.062200
     70 H25A        24.7410    27.0280    13.3430 h1         1 F53       0.062200
     71 H27         24.1780    25.7020     9.7450 h2         1 F53       0.082700
     72 H29         20.4520    24.9070    10.5580 h1         1 F53       0.056700
     73 H29A        21.2030    25.4390    12.0790 h1         1 F53       0.056700
     74 H30         21.0370    26.9710     9.4450 hc         1 F53       0.067200
     75 H30A        20.6810    27.5930    11.0500 hc         1 F53       0.067200
     76 H31         23.1710    27.8840     9.7950 hc         1 F53       0.077700
     77 H32         18.1270    27.5240    15.0510 hc         1 F53       0.064200
     78 H32A        17.3230    29.0380    14.6620 hc         1 F53       0.064200
     79 H34         17.8760    25.0680    11.1060 ha         1 F53       0.112000
     80 H35         17.5600    26.7160     9.2820 ha         1 F53       0.110000
     81 H36         17.5130    29.1380     9.8150 ha         1 F53       0.112000
     82 H37         17.7700    29.8980    12.1490 ha         1 F53       0.122000
     83 H33         18.1510    25.8380    13.4350 ha         1 F53       0.122000
@<TRIPOS>BOND
     1     1     2 1   
     2     1     3 1   
     3     1    42 1   
     4     1    43 1   
     5     2    44 1   
     6     3     4 ar  
     7     3     8 ar  
     8     4     5 ar  
     9     4    45 1   
    10     5     6 ar  
    11     5    46 1   
    12     6     7 ar  
    13     6    10 1   
    14     7     8 ar  
    15     7    47 1   
    16     8    48 1   
    17     9    31 1   
    18     9    32 1   
    19    10    11 2   
    20    10    12 2   
    21    10    13 1   
    22    13    14 1   
    23    13    18 1   
    24    14    15 1   
    25    14    49 1   
    26    14    50 1   
    27    15    16 1   
    28    15    17 1   
    29    15    51 1   
    30    16    23 1   
    31    16    52 1   
    32    16    53 1   
    33    17    20 1   
    34    17    54 1   
    35    17    55 1   
    36    18    19 1   
    37    18    56 1   
    38    18    57 1   
    39    19    21 1   
    40    19    22 1   
    41    19    58 1   
    42    20    59 1   
    43    20    60 1   
    44    20    61 1   
    45    21    62 1   
    46    22    24 1   
    47    22    35 1   
    48    22    63 1   
    49    23    64 1   
    50    23    65 1   
    51    23    66 1   
    52    24    25 1   
    53    24    67 1   
    54    25    26 2   
    55    25    27 1   
    56    27    28 1   
    57    28    29 1   
    58    28    34 1   
    59    28    68 1   
    60    29    30 1   
    61    29    69 1   
    62    29    70 1   
    63    30    31 1   
    64    31    34 1   
    65    31    71 1   
    66    32    33 1   
    67    32    72 1   
    68    32    73 1   
    69    33    34 1   
    70    33    74 1   
    71    33    75 1   
    72    34    76 1   
    73    35    41 1   
    74    35    77 1   
    75    35    78 1   
    76    36    37 ar  
    77    36    41 ar  
    78    36    83 1   
    79    37    38 ar  
    80    37    79 1   
    81    38    39 ar  
    82    38    80 1   
    83    39    40 ar  
    84    39    81 1   
    85    40    41 ar  
    86    40    82 1   
@<TRIPOS>SUBSTRUCTURE
     1 F53         1 TEMP              0 ****  ****    0 ROOT
