@<TRIPOS>MOLECULE
F53
   83    86     1     0     0
SMALL
No Charge or Current Charge


@<TRIPOS>ATOM
      1 C1          14.2540    35.0690    19.1640 c3         1 F53       0.198900
      2 O1          14.9000    34.7610    20.4070 oh         1 F53      -0.661000
      3 C2          15.0740    34.5470    17.9900 ca         1 F53      -0.032300
      4 C3          16.0540    35.3600    17.3880 ca         1 F53      -0.109000
      5 C4          16.8070    34.8840    16.3020 ca         1 F53      -0.020000
      6 C5          16.5900    33.5800    15.8080 ca         1 F53      -0.307500
      7 C6          15.6050    32.7660    16.4040 ca         1 F53      -0.020000
      8 C7          14.8550    33.2490    17.4900 ca         1 F53      -0.109000
      9 O8          22.4310    24.6310    10.5140 os         1 F53      -0.447000
     10 S8          17.5620    32.9660    14.4180 sy         1 F53       1.193600
     11 O9          18.0440    34.0950    13.6140 o          1 F53      -0.544500
     12 O10         16.8670    31.8450    13.7780 o          1 F53      -0.544500
     13 N11         18.9380    32.2970    15.1830 n3         1 F53      -0.750500
     14 C12         19.8010    33.3210    15.8410 c3         1 F53       0.204800
     15 C13         21.2430    32.8800    16.2220 c3         1 F53      -0.058700
     16 C14         22.0560    32.4380    14.9680 c3         1 F53      -0.075900
     17 C15         21.9620    33.9640    17.0810 c3         1 F53      -0.075900
     18 C16         18.6350    31.1130    16.0440 c3         1 F53       0.214800
     19 C17         19.5520    29.8710    15.8160 c3         1 F53       0.152300
     20 C18         22.2600    35.3040    16.3690 c3         1 F53      -0.087600
     21 O18         19.2820    28.8720    16.8220 oh         1 F53      -0.670000
     22 C19         19.4330    29.2590    14.3850 c3         1 F53       0.098700
     23 C20         23.4250    31.7960    15.2780 c3         1 F53      -0.087600
     24 N20         20.5470    28.3370    14.1080 ns         1 F53      -0.502900
     25 C21         21.5640    28.5830    13.2320 c          1 F53       0.635100
     26 O22         21.7220    29.6210    12.6090 o          1 F53      -0.538000
     27 O23         22.3280    27.4530    13.1410 os         1 F53      -0.460100
     28 C24         23.4140    27.5160    12.1700 c5         1 F53       0.160300
     29 C25         24.4890    26.4910    12.6230 c5         1 F53       0.152600
     30 O26         24.0140    25.2370    12.1020 os         1 F53      -0.467000
     31 C27         23.5640    25.4840    10.7600 c5         1 F53       0.367300
     32 C29         21.2780    25.2920    11.0660 c5         1 F53       0.150600
     33 C30         21.4620    26.7360    10.5480 c5         1 F53      -0.094400
     34 C31         23.0080    26.9480    10.7470 c5         1 F53      -0.141700
     35 C32         18.0800    28.5610    14.0750 c3         1 F53      -0.038100
     36 C33         17.9000    26.6280    12.4220 ca         1 F53      -0.101500
     37 C34         17.8310    26.1290    11.1090 ca         1 F53      -0.116000
     38 C35         17.8740    27.0110    10.0170 ca         1 F53      -0.115000
     39 C36         17.9790    28.3940    10.2390 ca         1 F53      -0.116000
     40 C37         18.0420    28.8940    11.5510 ca         1 F53      -0.101500
     41 C38         18.0060    28.0140    12.6510 ca         1 F53      -0.084300
     42 H1          13.2530    34.6180    19.1340 h1         1 F53       0.034200
     43 H1A         14.1260    36.1550    19.0600 h1         1 F53       0.034200
     44 HO1         14.3270    35.1210    21.1200 ho         1 F53       0.445000
     45 H3          16.2320    36.3640    17.7650 ha         1 F53       0.121000
     46 H4          17.5590    35.5300    15.8510 ha         1 F53       0.134000
     47 H6          15.4140    31.7610    16.0310 ha         1 F53       0.134000
     48 H7          14.1000    32.6110    17.9450 ha         1 F53       0.121000
     49 H12         19.9130    34.1900    15.1810 h1         1 F53       0.054200
     50 H12A        19.3030    33.6840    16.7500 h1         1 F53       0.054200
     51 H13         21.1540    32.0140    16.8850 hc         1 F53       0.043700
     52 H14         21.4690    31.7120    14.3960 hc         1 F53       0.048200
     53 H14A        22.2020    33.2920    14.2960 hc         1 F53       0.048200
     54 H15         21.3480    34.1740    17.9660 hc         1 F53       0.048200
     55 H15A        22.9040    33.5560    17.4670 hc         1 F53       0.048200
     56 H16         18.7000    31.3990    17.1030 h1         1 F53       0.065200
     57 H16A        17.6030    30.7690    15.9050 h1         1 F53       0.065200
     58 H17         20.5900    30.2010    15.9270 h1         1 F53       0.055700
     59 H18         22.7450    35.9980    17.0650 hc         1 F53       0.032033
     60 H18A        22.9340    35.1610    15.5170 hc         1 F53       0.032033
     61 H18B        21.3390    35.7790    16.0110 hc         1 F53       0.032033
     62 HO18        20.0340    28.2400    16.8100 ho         1 F53       0.449000
     63 H19         19.5200    30.1020    13.6860 h1         1 F53       0.101700
     64 H20         23.8850    31.4230    14.3550 hc         1 F53       0.032033
     65 H20A        24.1120    32.5230    15.7260 hc         1 F53       0.032033
     66 H20B        23.3100    30.9510    15.9670 hc         1 F53       0.032033
     67 HN20        20.5260    27.4060    14.5000 hn         1 F53       0.322500
     68 H24         23.8450    28.5260    12.1290 h1         1 F53       0.086700
     69 H25         25.4700    26.7170    12.1830 h1         1 F53       0.062200
     70 H25A        24.5950    26.4350    13.7140 h1         1 F53       0.062200
     71 H27         24.3710    25.3220    10.0310 h2         1 F53       0.082700
     72 H29         20.3580    24.8170    10.7000 h1         1 F53       0.056700
     73 H29A        21.3040    25.2300    12.1620 h1         1 F53       0.056700
     74 H30         21.2020    26.7830     9.4850 hc         1 F53       0.067200
     75 H30A        20.8150    27.4620    11.0460 hc         1 F53       0.067200
     76 H31         23.4520    27.5400     9.9400 hc         1 F53       0.077700
     77 H32         17.9180    27.7520    14.7970 hc         1 F53       0.064200
     78 H32A        17.2570    29.2660    14.2300 hc         1 F53       0.064200
     79 H34         17.7470    25.0570    10.9390 ha         1 F53       0.112000
     80 H35         17.8240    26.6240     9.0020 ha         1 F53       0.110000
     81 H36         18.0100    29.0790     9.3940 ha         1 F53       0.112000
     82 H37         18.1170    29.9680    11.7120 ha         1 F53       0.122000
     83 H33         17.8710    25.9340    13.2590 ha         1 F53       0.122000
@<TRIPOS>BOND
     1     1     2 1   
     2     1     3 1   
     3     1    42 1   
     4     1    43 1   
     5     2    44 1   
     6     3     4 ar  
     7     3     8 ar  
     8     4     5 ar  
     9     4    45 1   
    10     5     6 ar  
    11     5    46 1   
    12     6     7 ar  
    13     6    10 1   
    14     7     8 ar  
    15     7    47 1   
    16     8    48 1   
    17     9    31 1   
    18     9    32 1   
    19    10    11 2   
    20    10    12 2   
    21    10    13 1   
    22    13    14 1   
    23    13    18 1   
    24    14    15 1   
    25    14    49 1   
    26    14    50 1   
    27    15    16 1   
    28    15    17 1   
    29    15    51 1   
    30    16    23 1   
    31    16    52 1   
    32    16    53 1   
    33    17    20 1   
    34    17    54 1   
    35    17    55 1   
    36    18    19 1   
    37    18    56 1   
    38    18    57 1   
    39    19    21 1   
    40    19    22 1   
    41    19    58 1   
    42    20    59 1   
    43    20    60 1   
    44    20    61 1   
    45    21    62 1   
    46    22    24 1   
    47    22    35 1   
    48    22    63 1   
    49    23    64 1   
    50    23    65 1   
    51    23    66 1   
    52    24    25 1   
    53    24    67 1   
    54    25    26 2   
    55    25    27 1   
    56    27    28 1   
    57    28    29 1   
    58    28    34 1   
    59    28    68 1   
    60    29    30 1   
    61    29    69 1   
    62    29    70 1   
    63    30    31 1   
    64    31    34 1   
    65    31    71 1   
    66    32    33 1   
    67    32    72 1   
    68    32    73 1   
    69    33    34 1   
    70    33    74 1   
    71    33    75 1   
    72    34    76 1   
    73    35    41 1   
    74    35    77 1   
    75    35    78 1   
    76    36    37 ar  
    77    36    41 ar  
    78    36    83 1   
    79    37    38 ar  
    80    37    79 1   
    81    38    39 ar  
    82    38    80 1   
    83    39    40 ar  
    84    39    81 1   
    85    40    41 ar  
    86    40    82 1   
@<TRIPOS>SUBSTRUCTURE
     1 F53         1 TEMP              0 ****  ****    0 ROOT
