@<TRIPOS>MOLECULE
F54
   44    47     1     0     0
SMALL
abcg2


@<TRIPOS>ATOM
      1 C09         -2.8770    -0.2260    -0.0350 cp         1 F54      -0.061000
      2 C10         -2.1760     0.5420    -0.9640 ca         1 F54      -0.099500
      3 C11         -0.7920     0.5510    -0.9690 ca         1 F54      -0.089500
      4 C12         -2.1550    -0.9930     0.8770 ca         1 F54      -0.099500
      5 C13         -0.7690    -0.9920     0.8630 ca         1 F54      -0.089500
      6 C14         -0.0690    -0.2200    -0.0610 cp         1 F54      -0.099500
      7 C15          1.4130    -0.1500    -0.0550 cp         1 F54       0.398500
      8 C17          3.2380     1.2370    -0.0110 ca         1 F54       0.246000
      9 C18          3.7440     2.5580     0.0160 ca         1 F54      -0.078000
     10 C19          5.0890     2.7920     0.0610 ca         1 F54      -0.152000
     11 C20          5.9620     1.6930     0.0760 ca         1 F54       0.121000
     12 C22          5.5300     0.4020     0.0450 ca         1 F54      -0.082000
     13 C23          4.1380     0.1460     0.0050 ca         1 F54      -0.037000
     14 C24          3.5910    -1.1620    -0.0260 ca         1 F54      -0.068600
     15 C25          4.5170    -2.3690    -0.0150 c          1 F54       0.713600
     16 C28          2.2240    -1.3220    -0.0730 ca         1 F54      -0.116300
     17 C29          1.6210    -2.6950    -0.1770 c3         1 F54      -0.032800
     18 F21          7.2800     1.9460     0.1200 f          1 F54      -0.198000
     19 N16          1.9020     1.0660    -0.0410 nb         1 F54      -0.699000
     20 O26          5.1280    -2.5910    -1.0740 o          1 F54      -0.701000
     21 O27          4.5660    -2.9970     1.0540 o          1 F54      -0.701000
     22 C02         -7.1170    -0.3580    -0.0530 ca         1 F54       0.359300
     23 C03         -6.4010    -1.5420    -0.1620 ca         1 F54      -0.166000
     24 C04         -5.0180    -1.4930    -0.1500 ca         1 F54      -0.065000
     25 C06         -5.1810     0.8380     0.0890 ca         1 F54       0.457000
     26 C08         -4.3510    -0.2770    -0.0330 cp         1 F54      -0.052000
     27 N05         -6.4880     0.8110     0.0780 nb         1 F54      -0.681000
     28 H101        -2.7140     1.1280    -1.6980 ha         1 F54       0.108500
     29 H111        -0.2660     1.1530    -1.6980 ha         1 F54       0.128000
     30 H121        -2.6800    -1.5850     1.6170 ha         1 F54       0.108500
     31 H131        -0.2340    -1.5810     1.5970 ha         1 F54       0.128000
     32 H181         3.0400     3.3800     0.0030 ha         1 F54       0.115000
     33 H191         5.4840     3.7990     0.0850 ha         1 F54       0.112000
     34 H221         6.2480    -0.4060     0.0440 ha         1 F54       0.161000
     35 H291         1.4830    -3.1510     0.8050 hc         1 F54       0.041033
     36 H293         0.6500    -2.6730    -0.6670 hc         1 F54       0.041033
     37 H292         2.2610    -3.3590    -0.7550 hc         1 F54       0.041033
     38 H013        -8.9800     0.3990    -0.7880 hc         1 F54       0.048700
     39 H011        -9.0300    -1.3010    -0.3090 hc         1 F54       0.048700
     40 H012        -8.9960    -0.0310     0.9150 hc         1 F54       0.048700
     41 H031        -6.9160    -2.4870    -0.2640 ha         1 F54       0.122000
     42 H041        -4.4410    -2.4040    -0.2490 ha         1 F54       0.129000
     43 C01         -8.6120    -0.3270    -0.0630 c3         1 F54      -0.140400
     44 CL07        -4.4770     2.4130     0.3160 cl         1 F54      -0.168000
@<TRIPOS>BOND
     1     1     2 ar  
     2     1     4 ar  
     3     1    26 1   
     4     2     3 ar  
     5     2    28 1   
     6     3     6 ar  
     7     3    29 1   
     8     4     5 ar  
     9     4    30 1   
    10     5     6 ar  
    11     5    31 1   
    12     6     7 1   
    13     7    16 ar  
    14     7    19 ar  
    15     8     9 ar  
    16     8    13 ar  
    17     8    19 ar  
    18     9    10 ar  
    19     9    32 1   
    20    10    11 ar  
    21    10    33 1   
    22    11    12 ar  
    23    11    18 1   
    24    12    13 ar  
    25    12    34 1   
    26    13    14 ar  
    27    14    15 1   
    28    14    16 ar  
    29    15    20 1   
    30    15    21 1   
    31    16    17 1   
    32    17    35 1   
    33    17    36 1   
    34    17    37 1   
    35    22    23 ar  
    36    22    27 ar  
    37    22    43 1   
    38    23    24 ar  
    39    23    41 1   
    40    24    26 ar  
    41    24    42 1   
    42    25    26 ar  
    43    25    27 ar  
    44    25    44 1   
    45    38    43 1   
    46    39    43 1   
    47    40    43 1   
@<TRIPOS>SUBSTRUCTURE
     1 F54         1 TEMP              0 ****  ****    0 ROOT
