@<TRIPOS>MOLECULE
F54
   44    47     1     0     0
SMALL
No Charge or Current Charge


@<TRIPOS>ATOM
      1 C09         -2.9320    -0.2350    -0.0580 cp         1 F54      -0.061000
      2 C10         -2.2210     0.5600    -0.9880 ca         1 F54      -0.099500
      3 C11         -0.8160     0.5910    -0.9900 ca         1 F54      -0.089500
      4 C12         -2.1850    -1.0080     0.8610 ca         1 F54      -0.099500
      5 C13         -0.7800    -0.9780     0.8600 ca         1 F54      -0.089500
      6 C14         -0.0650    -0.1850    -0.0720 cp         1 F54      -0.099500
      7 C15          1.4360    -0.1410    -0.0730 cp         1 F54       0.398500
      8 C17          3.3040     1.2660    -0.0060 ca         1 F54       0.246000
      9 C18          3.8320     2.5730     0.0320 ca         1 F54      -0.078000
     10 C19          5.2180     2.7940     0.0940 ca         1 F54      -0.152000
     11 C20          6.0920     1.7010     0.1180 ca         1 F54       0.121000
     12 C22          5.5910     0.3920     0.0780 ca         1 F54      -0.082000
     13 C23          4.1960     0.1620     0.0130 ca         1 F54      -0.037000
     14 C24          3.6650    -1.1510    -0.0380 ca         1 F54      -0.068600
     15 C25          4.5770    -2.3530    -0.0270 c          1 F54       0.713600
     16 C28          2.2550    -1.3080    -0.0950 ca         1 F54      -0.116300
     17 C29          1.6530    -2.7130    -0.2080 c3         1 F54      -0.032800
     18 F21          7.4240     1.9100     0.1800 f          1 F54      -0.198000
     19 N16          1.9670     1.1020    -0.0570 nb         1 F54      -0.699000
     20 O26          5.1450    -2.6550    -1.0670 o          1 F54      -0.701000
     21 O27          4.7220    -2.9550     1.0280 o          1 F54      -0.701000
     22 C02         -7.2080    -0.3630    -0.0500 ca         1 F54       0.359300
     23 C03         -6.4910    -1.5710    -0.0850 ca         1 F54      -0.166000
     24 C04         -5.0870    -1.5370    -0.0850 ca         1 F54      -0.065000
     25 C06         -5.2490     0.8750    -0.0090 ca         1 F54       0.457000
     26 C08         -4.4260    -0.2880    -0.0560 cp         1 F54      -0.052000
     27 N05         -6.6030     0.8420    -0.0060 nb         1 F54      -0.681000
     28 H101        -2.7630     1.1510    -1.7230 ha         1 F54       0.108500
     29 H111        -0.2990     1.2140    -1.7160 ha         1 F54       0.128000
     30 H121        -2.7030    -1.6270     1.5900 ha         1 F54       0.108500
     31 H131        -0.2390    -1.5680     1.5970 ha         1 F54       0.128000
     32 H181         3.1550     3.4230     0.0160 ha         1 F54       0.115000
     33 H191         5.6100     3.8070     0.1250 ha         1 F54       0.112000
     34 H221         6.3010    -0.4310     0.0980 ha         1 F54       0.161000
     35 H291         1.5330    -3.1700     0.7810 hc         1 F54       0.041033
     36 H293         0.6720    -2.7010    -0.6960 hc         1 F54       0.041033
     37 H292         2.2790    -3.3800    -0.8100 hc         1 F54       0.041033
     38 H013        -9.1200     0.4730    -0.6480 hc         1 F54       0.048700
     39 H011        -9.1320    -1.2840    -0.4500 hc         1 F54       0.048700
     40 H012        -9.1070    -0.2360     0.9780 hc         1 F54       0.048700
     41 H031        -7.0170    -2.5210    -0.1110 ha         1 F54       0.122000
     42 H041        -4.5170    -2.4630    -0.1180 ha         1 F54       0.129000
     43 C01         -8.7240    -0.3510    -0.0430 c3         1 F54      -0.140400
     44 Cl07        -4.5740     2.4990     0.1100 cl         1 F54      -0.168000
@<TRIPOS>BOND
     1     1     2 ar  
     2     1     4 ar  
     3     1    26 1   
     4     2     3 ar  
     5     2    28 1   
     6     3     6 ar  
     7     3    29 1   
     8     4     5 ar  
     9     4    30 1   
    10     5     6 ar  
    11     5    31 1   
    12     6     7 1   
    13     7    16 ar  
    14     7    19 ar  
    15     8     9 ar  
    16     8    13 ar  
    17     8    19 ar  
    18     9    10 ar  
    19     9    32 1   
    20    10    11 ar  
    21    10    33 1   
    22    11    12 ar  
    23    11    18 1   
    24    12    13 ar  
    25    12    34 1   
    26    13    14 ar  
    27    14    15 1   
    28    14    16 ar  
    29    15    20 1   
    30    15    21 1   
    31    16    17 1   
    32    17    35 1   
    33    17    36 1   
    34    17    37 1   
    35    22    23 ar  
    36    22    27 ar  
    37    22    43 1   
    38    23    24 ar  
    39    23    41 1   
    40    24    26 ar  
    41    24    42 1   
    42    25    26 ar  
    43    25    27 ar  
    44    25    44 1   
    45    38    43 1   
    46    39    43 1   
    47    40    43 1   
@<TRIPOS>SUBSTRUCTURE
     1 F54         1 TEMP              0 ****  ****    0 ROOT
