@<TRIPOS>MOLECULE
F55
   41    42     1     0     0
SMALL
abcg2


@<TRIPOS>ATOM
      1 C14         -4.6370    -1.1370    -0.6370 ca         1 F55      -0.062500
      2 C13         -5.8790    -0.7970    -0.1310 ca         1 F55      -0.112500
      3 C12         -6.0260     0.4070     0.5440 ca         1 F55       0.140000
      4 CL1         -7.5760     0.8460     1.1680 cl         1 F55      -0.188000
      5 C11         -4.9530     1.2670     0.7190 ca         1 F55      -0.112500
      6 C10         -3.7120     0.9080     0.2180 ca         1 F55      -0.062500
      7 C9          -3.5390    -0.2980    -0.4590 ca         1 F55      -0.161600
      8 C8          -2.2370    -0.7190    -1.0550 c          1 F55       0.632700
      9 O8          -2.1900    -1.4820    -1.9920 o          1 F55      -0.512100
     10 N2          -1.1280    -0.1880    -0.4390 ns         1 F55      -0.492500
     11 C7           0.1870    -0.2860    -0.8900 c          1 F55       0.668100
     12 O7           0.4980    -0.7680    -1.9550 o          1 F55      -0.547100
     13 N1           1.0710     0.2610    -0.0120 ns         1 F55      -0.522900
     14 C1           2.4770     0.2590    -0.2450 c6         1 F55       0.310700
     15 O5           3.0430    -0.8550     0.4050 os         1 F55      -0.461000
     16 C5           4.4250    -1.0070     0.1550 c6         1 F55       0.179300
     17 C6           4.8770    -2.2910     0.8180 c3         1 F55       0.172600
     18 O6           4.2100    -3.3730     0.2130 oh         1 F55      -0.705000
     19 C4           5.1830     0.2080     0.6920 c6         1 F55       0.142300
     20 O4           6.5430     0.0530     0.3750 oh         1 F55      -0.714000
     21 C3           4.6130     1.4820     0.0790 c6         1 F55       0.139300
     22 O3           5.2770     2.5710     0.6750 oh         1 F55      -0.666000
     23 C2           3.1060     1.5500     0.2830 c6         1 F55       0.099300
     24 O2           2.6320     2.6740    -0.4120 oh         1 F55      -0.713000
     25 H14         -4.5250    -2.0730    -1.1680 ha         1 F55       0.128000
     26 H13         -6.7220    -1.4600    -0.2630 ha         1 F55       0.135500
     27 H11         -5.0790     2.2090     1.2340 ha         1 F55       0.135500
     28 H10         -2.8960     1.6070     0.3480 ha         1 F55       0.128000
     29 HN2         -1.2800     0.3090     0.4250 hn         1 F55       0.312500
     30 HN1          0.7570     0.5190     0.9130 hn         1 F55       0.307500
     31 H1           2.6460     0.1980    -1.3270 h2         1 F55       0.091700
     32 H5           4.6050    -1.0820    -0.9300 h1         1 F55       0.068700
     33 H6           5.9640    -2.3710     0.7080 h1         1 F55       0.035200
     34 H6A          4.6660    -2.2290     1.8950 h1         1 F55       0.035200
     35 HO6          4.5440    -4.1840     0.6070 ho         1 F55       0.504000
     36 H4           5.0340     0.2520     1.7840 h1         1 F55       0.051700
     37 HO4          7.0160     0.8250     0.7020 ho         1 F55       0.525000
     38 H3           4.8100     1.4520    -1.0050 h1         1 F55       0.059700
     39 HO3          5.0900     3.3630     0.1620 ho         1 F55       0.466000
     40 H2           2.8990     1.6260     1.3620 h1         1 F55       0.049700
     41 HO2          1.7200     2.8410    -0.1520 ho         1 F55       0.514000
@<TRIPOS>BOND
     1     1     2 ar  
     2     1     7 ar  
     3     1    25 1   
     4     2     3 ar  
     5     2    26 1   
     6     3     4 1   
     7     3     5 ar  
     8     5     6 ar  
     9     5    27 1   
    10     6     7 ar  
    11     6    28 1   
    12     7     8 1   
    13     8     9 2   
    14     8    10 1   
    15    10    11 1   
    16    10    29 1   
    17    11    12 2   
    18    11    13 1   
    19    13    14 1   
    20    13    30 1   
    21    14    15 1   
    22    14    23 1   
    23    14    31 1   
    24    15    16 1   
    25    16    17 1   
    26    16    19 1   
    27    16    32 1   
    28    17    18 1   
    29    17    33 1   
    30    17    34 1   
    31    18    35 1   
    32    19    20 1   
    33    19    21 1   
    34    19    36 1   
    35    20    37 1   
    36    21    22 1   
    37    21    23 1   
    38    21    38 1   
    39    22    39 1   
    40    23    24 1   
    41    23    40 1   
    42    24    41 1   
@<TRIPOS>SUBSTRUCTURE
     1 F55         1 TEMP              0 ****  ****    0 ROOT
