@<TRIPOS>MOLECULE
F55
   41    42     1     0     0
SMALL
No Charge or Current Charge


@<TRIPOS>ATOM
      1 C14         -4.7330    -0.9530    -0.9060 ca         1 F55      -0.062500
      2 C13         -5.9490    -0.6370    -0.2750 ca         1 F55      -0.112500
      3 C12         -5.9670     0.2490     0.8110 ca         1 F55       0.140000
      4 Cl1         -7.4890     0.6420     1.5990 cl         1 F55      -0.188000
      5 C11         -4.7720     0.8210     1.2670 ca         1 F55      -0.112500
      6 C10         -3.5520     0.5110     0.6400 ca         1 F55      -0.062500
      7 C9          -3.5150    -0.3850    -0.4610 ca         1 F55      -0.161600
      8 C8          -2.2230    -0.7530    -1.1710 c          1 F55       0.632700
      9 O8          -2.2170    -1.5280    -2.1160 o          1 F55      -0.512100
     10 N2          -1.0780    -0.1670    -0.6930 ns         1 F55      -0.492500
     11 C7           0.2130    -0.2990    -1.1130 c          1 F55       0.668100
     12 O7           0.5720    -0.9970    -2.0450 o          1 F55      -0.547100
     13 N1           1.0790     0.4610    -0.3780 ns         1 F55      -0.522900
     14 C1           2.5310     0.4040    -0.5090 c6         1 F55       0.310700
     15 O5           2.9520    -0.7340     0.2670 os         1 F55      -0.461000
     16 C5           4.3800    -1.0000     0.2180 c6         1 F55       0.179300
     17 C6           4.6660    -2.3220     1.0080 c3         1 F55       0.172600
     18 O6           3.9180    -3.4560     0.5200 oh         1 F55      -0.705000
     19 C4           5.1630     0.2190     0.8000 c6         1 F55       0.142300
     20 O4           6.5900     0.0410     0.7270 oh         1 F55      -0.714000
     21 C3           4.7560     1.5050     0.0230 c6         1 F55       0.139300
     22 O3           5.4090     2.6630     0.5710 oh         1 F55      -0.666000
     23 C2           3.2130     1.6960     0.0570 c6         1 F55       0.099300
     24 O2           2.8530     2.8840    -0.6880 oh         1 F55      -0.713000
     25 H14         -4.7440    -1.6440    -1.7470 ha         1 F55       0.128000
     26 H13         -6.8760    -1.0810    -0.6280 ha         1 F55       0.135500
     27 H11         -4.7910     1.5080     2.1090 ha         1 F55       0.135500
     28 H10         -2.6500     0.9770     1.0270 ha         1 F55       0.128000
     29 HN2         -1.2130     0.4510     0.0870 hn         1 F55       0.312500
     30 HN1          0.7000     0.9740     0.4050 hn         1 F55       0.307500
     31 H1           2.8030     0.2650    -1.5680 h2         1 F55       0.091700
     32 H5           4.6770    -1.1580    -0.8290 h1         1 F55       0.068700
     33 H6           5.7420    -2.5320     0.9460 h1         1 F55       0.035200
     34 H6A          4.4300    -2.1430     2.0660 h1         1 F55       0.035200
     35 HO6          4.1180    -4.2110     1.1210 ho         1 F55       0.504000
     36 H4           4.8610     0.3450     1.8510 h1         1 F55       0.051700
     37 HO4          6.9640     0.9510     0.8280 ho         1 F55       0.525000
     38 H3           5.0550     1.3770    -1.0290 h1         1 F55       0.059700
     39 HO3          4.8660     3.4230     0.2560 ho         1 F55       0.466000
     40 H2           2.9030     1.8090     1.1070 h1         1 F55       0.049700
     41 HO2          1.8690     2.9140    -0.7440 ho         1 F55       0.514000
@<TRIPOS>BOND
     1     1     2 ar  
     2     1     7 ar  
     3     1    25 1   
     4     2     3 ar  
     5     2    26 1   
     6     3     4 1   
     7     3     5 ar  
     8     5     6 ar  
     9     5    27 1   
    10     6     7 ar  
    11     6    28 1   
    12     7     8 1   
    13     8     9 2   
    14     8    10 1   
    15    10    11 1   
    16    10    29 1   
    17    11    12 2   
    18    11    13 1   
    19    13    14 1   
    20    13    30 1   
    21    14    15 1   
    22    14    23 1   
    23    14    31 1   
    24    15    16 1   
    25    16    17 1   
    26    16    19 1   
    27    16    32 1   
    28    17    18 1   
    29    17    33 1   
    30    17    34 1   
    31    18    35 1   
    32    19    20 1   
    33    19    21 1   
    34    19    36 1   
    35    20    37 1   
    36    21    22 1   
    37    21    23 1   
    38    21    38 1   
    39    22    39 1   
    40    23    24 1   
    41    23    40 1   
    42    24    41 1   
@<TRIPOS>SUBSTRUCTURE
     1 F55         1 TEMP              0 ****  ****    0 ROOT
