@<TRIPOS>MOLECULE
F56
   40    40     1     0     0
SMALL
abcg2


@<TRIPOS>ATOM
      1 C1         -25.1530    30.4800   -23.7240 cc         1 F56      -0.352000
      2 C2         -24.8670    31.8010   -23.8030 cd         1 F56       0.027600
      3 C4         -27.1770    32.4340   -24.1920 c          1 F56       0.598200
      4 C5         -27.5270    31.0320   -24.0840 cd         1 F56      -0.485400
      5 C6         -26.5020    30.0820   -23.8690 cc         1 F56       0.331100
      6 C7         -28.8970    30.5400   -24.1780 c          1 F56       0.633300
      7 C8         -30.0870    31.4460   -24.3940 c3         1 F56      -0.140700
      8 C9         -31.3600    30.8760   -23.7710 c3         1 F56      -0.064400
      9 C10        -31.3730    30.8570   -22.2400 c3         1 F56      -0.055700
     10 C11        -32.5290    29.9910   -21.7200 c3         1 F56      -0.038200
     11 C12        -32.3770    28.5400   -22.0520 c2         1 F56      -0.215200
     12 C13        -33.2420    27.8150   -22.7550 c2         1 F56      -0.221200
     13 C14        -33.0800    26.3660   -23.0850 c3         1 F56      -0.053900
     14 C18        -30.2510    31.6310   -25.9090 c3         1 F56      -0.079100
     15 C19        -31.4690    32.2640   -21.6590 c3         1 F56      -0.092100
     16 N3         -25.8270    32.7130   -24.0200 ns         1 F56      -0.377100
     17 O15        -26.7530    28.8030   -23.7910 oh         1 F56      -0.545100
     18 O16        -29.1040    29.3190   -24.1110 o          1 F56      -0.603100
     19 O17        -27.9300    33.3720   -24.4220 o          1 F56      -0.564000
     20 H1         -24.3770    29.7500   -23.5540 ha         1 F56       0.220000
     21 H2         -23.8630    32.1850   -23.6990 h4         1 F56       0.203000
     22 H4         -29.8750    32.4230   -23.9700 hc         1 F56       0.093700
     23 H5         -32.2010    31.4900   -24.1150 hc         1 F56       0.052700
     24 H6         -31.5440    29.8710   -24.1550 hc         1 F56       0.052700
     25 H7         -30.4410    30.4030   -21.8810 hc         1 F56       0.048700
     26 H8         -33.4770    30.3710   -22.1160 hc         1 F56       0.042700
     27 H9         -32.5800    30.1050   -20.6310 hc         1 F56       0.042700
     28 H10        -31.4710    28.0630   -21.6830 ha         1 F56       0.168000
     29 H11        -34.1420    28.2960   -23.1320 ha         1 F56       0.162000
     30 H12        -33.9150    25.7760   -22.7030 hc         1 F56       0.037700
     31 H13        -33.0580    26.2080   -24.1660 hc         1 F56       0.037700
     32 H14        -32.1590    25.9570   -22.6670 hc         1 F56       0.037700
     33 H15        -31.0520    32.3430   -26.1080 hc         1 F56       0.041367
     34 H16        -29.3440    32.0160   -26.3760 hc         1 F56       0.041367
     35 H17        -30.5100    30.6880   -26.3930 hc         1 F56       0.041367
     36 H18        -31.4320    32.2450   -20.5680 hc         1 F56       0.033367
     37 H19        -30.6560    32.9070   -21.9990 hc         1 F56       0.033367
     38 H20        -32.4080    32.7410   -21.9500 hc         1 F56       0.033367
     39 H21        -27.7550    28.7100   -23.9110 ho         1 F56       0.545000
     40 H3         -25.5670    33.6880   -24.0830 hn         1 F56       0.332500
@<TRIPOS>BOND
     1     1     2 2   
     2     1     5 1   
     3     1    20 1   
     4     2    16 1   
     5     2    21 1   
     6     3     4 1   
     7     3    16 1   
     8     3    19 2   
     9     4     5 2   
    10     4     6 1   
    11     5    17 1   
    12     6     7 1   
    13     6    18 2   
    14     7     8 1   
    15     7    14 1   
    16     7    22 1   
    17     8     9 1   
    18     8    23 1   
    19     8    24 1   
    20     9    10 1   
    21     9    15 1   
    22     9    25 1   
    23    10    11 1   
    24    10    26 1   
    25    10    27 1   
    26    11    12 2   
    27    11    28 1   
    28    12    13 1   
    29    12    29 1   
    30    13    30 1   
    31    13    31 1   
    32    13    32 1   
    33    14    33 1   
    34    14    34 1   
    35    14    35 1   
    36    15    36 1   
    37    15    37 1   
    38    15    38 1   
    39    16    40 1   
    40    17    39 1   
@<TRIPOS>SUBSTRUCTURE
     1 F56         1 TEMP              0 ****  ****    0 ROOT
