@<TRIPOS>MOLECULE
F56
   40    40     1     0     0
SMALL
No Charge or Current Charge


@<TRIPOS>ATOM
      1 C1         -25.1230    31.0160   -23.3370 cc         1 F56      -0.352000
      2 C2         -24.9370    32.3620   -23.5070 cd         1 F56       0.027600
      3 C4         -27.2270    32.6120   -24.3420 c          1 F56       0.598200
      4 C5         -27.4380    31.1600   -24.1020 cd         1 F56      -0.485400
      5 C6         -26.3720    30.4070   -23.6390 cc         1 F56       0.331100
      6 C7         -28.7500    30.4880   -24.3700 c          1 F56       0.633300
      7 C8         -30.0860    31.2420   -24.6160 c3         1 F56      -0.140700
      8 C9         -31.2790    30.6290   -23.8210 c3         1 F56      -0.064400
      9 C10        -31.0790    30.5160   -22.2780 c3         1 F56      -0.055700
     10 C11        -32.3000    29.8470   -21.5930 c3         1 F56      -0.038200
     11 C12        -32.5460    28.4270   -22.0630 c2         1 F56      -0.215200
     12 C13        -33.6440    28.0050   -22.7100 c2         1 F56      -0.221200
     13 C14        -33.8870    26.5890   -23.1850 c3         1 F56      -0.053900
     14 C18        -30.3900    31.3070   -26.1330 c3         1 F56      -0.079100
     15 C19        -30.7660    31.8820   -21.6160 c3         1 F56      -0.092100
     16 N3         -25.9900    33.0920   -24.0030 ns         1 F56      -0.377100
     17 O15        -26.4340    29.0910   -23.4260 oh         1 F56      -0.545100
     18 O16        -28.7830    29.2610   -24.3980 o          1 F56      -0.603100
     19 O17        -28.0340    33.3750   -24.8360 o          1 F56      -0.564000
     20 H1         -24.3170    30.3900   -22.9630 ha         1 F56       0.220000
     21 H2         -24.0220    32.9160   -23.3000 h4         1 F56       0.203000
     22 H4         -29.9950    32.2750   -24.2850 hc         1 F56       0.093700
     23 H5         -32.1770    31.2290   -24.0150 hc         1 F56       0.052700
     24 H6         -31.4880    29.6320   -24.2280 hc         1 F56       0.052700
     25 H7         -30.2160    29.8650   -22.0910 hc         1 F56       0.048700
     26 H8         -33.1890    30.4670   -21.7640 hc         1 F56       0.042700
     27 H9         -32.1410    29.8360   -20.5070 hc         1 F56       0.042700
     28 H10        -31.7360    27.7310   -21.8350 ha         1 F56       0.168000
     29 H11        -34.4530    28.7010   -22.9400 ha         1 F56       0.162000
     30 H12        -34.7890    26.1700   -22.7230 hc         1 F56       0.037700
     31 H13        -34.0240    26.5600   -24.2730 hc         1 F56       0.037700
     32 H14        -33.0470    25.9290   -22.9370 hc         1 F56       0.037700
     33 H15        -31.2990    31.8900   -26.3230 hc         1 F56       0.041367
     34 H16        -29.5630    31.7820   -26.6740 hc         1 F56       0.041367
     35 H17        -30.5340    30.3010   -26.5460 hc         1 F56       0.041367
     36 H18        -30.6850    31.7760   -20.5280 hc         1 F56       0.033367
     37 H19        -29.8130    32.2880   -21.9740 hc         1 F56       0.033367
     38 H20        -31.5570    32.6100   -21.8310 hc         1 F56       0.033367
     39 H21        -27.3430    28.8570   -23.7570 ho         1 F56       0.545000
     40 H3         -25.8780    34.0850   -24.1680 hn         1 F56       0.332500
@<TRIPOS>BOND
     1     1     2 2   
     2     1     5 1   
     3     1    20 1   
     4     2    16 1   
     5     2    21 1   
     6     3     4 1   
     7     3    16 1   
     8     3    19 2   
     9     4     5 2   
    10     4     6 1   
    11     5    17 1   
    12     6     7 1   
    13     6    18 2   
    14     7     8 1   
    15     7    14 1   
    16     7    22 1   
    17     8     9 1   
    18     8    23 1   
    19     8    24 1   
    20     9    10 1   
    21     9    15 1   
    22     9    25 1   
    23    10    11 1   
    24    10    26 1   
    25    10    27 1   
    26    11    12 2   
    27    11    28 1   
    28    12    13 1   
    29    12    29 1   
    30    13    30 1   
    31    13    31 1   
    32    13    32 1   
    33    14    33 1   
    34    14    34 1   
    35    14    35 1   
    36    15    36 1   
    37    15    37 1   
    38    15    38 1   
    39    16    40 1   
    40    17    39 1   
@<TRIPOS>SUBSTRUCTURE
     1 F56         1 TEMP              0 ****  ****    0 ROOT
