@<TRIPOS>MOLECULE
F58
   47    48     1     0     0
SMALL
abcg2


@<TRIPOS>ATOM
      1 C1           1.7540     0.2380    -0.2690 c6         1 F58       0.309700
      2 N1           0.3700     0.2440     0.0630 ns         1 F58      -0.523900
      3 C2           2.4100     1.5540     0.1600 c6         1 F58       0.099300
      4 N2          -1.8420    -0.2870    -0.1580 ns         1 F58      -0.496500
      5 O2           1.8810     2.6440    -0.5490 oh         1 F58      -0.713000
      6 C3           3.9010     1.4850    -0.1400 c6         1 F58       0.140300
      7 O3           4.5920     2.6020     0.3640 oh         1 F58      -0.666000
      8 C4           4.5180     0.2410     0.4900 c6         1 F58       0.142300
      9 O4           5.8570     0.0810     0.0950 oh         1 F58      -0.714000
     10 C5           3.7370    -0.9990     0.0510 c6         1 F58       0.179300
     11 O5           2.3730    -0.8460     0.3840 os         1 F58      -0.463000
     12 C6           4.2420    -2.2540     0.7310 c3         1 F58       0.172600
     13 O6           3.5500    -3.3620     0.2070 oh         1 F58      -0.705000
     14 C7          -0.5760    -0.3360    -0.7290 c          1 F58       0.667100
     15 O7          -0.3430    -0.8160    -1.8160 o          1 F58      -0.552100
     16 C8          -3.0270    -0.6880    -0.7430 c          1 F58       0.617100
     17 O8          -3.0900    -1.2110    -1.8300 o          1 F58      -0.513100
     18 C9          -4.2420    -0.3770     0.1100 c6         1 F58      -0.147700
     19 C10         -5.4840    -1.1100    -0.3900 c6         1 F58      -0.066900
     20 C11         -6.7010    -0.7710     0.4660 c6         1 F58      -0.075400
     21 C12         -6.9510     0.7320     0.5040 c6         1 F58      -0.076400
     22 C13         -5.7120     1.4760     0.9910 c6         1 F58      -0.075400
     23 C14         -4.4880     1.1420     0.1460 c6         1 F58      -0.066900
     24 H1           1.8490     0.1330    -1.3570 h2         1 F58       0.092700
     25 HN1          0.1220     0.5420     0.9950 hn         1 F58       0.305500
     26 H2           2.2740     1.6740     1.2460 h1         1 F58       0.047700
     27 HN2         -1.9210     0.1220     0.7620 hn         1 F58       0.308500
     28 HO2          0.9860     2.8150    -0.2380 ho         1 F58       0.515000
     29 H3           4.0260     1.4080    -1.2320 h1         1 F58       0.060700
     30 HO3          4.3740     3.3680    -0.1760 ho         1 F58       0.466000
     31 H4           4.4350     0.3300     1.5850 h1         1 F58       0.050700
     32 HO4          6.3490     0.8560     0.3850 ho         1 F58       0.525000
     33 H5           3.8490    -1.1140    -1.0400 h1         1 F58       0.068700
     34 H6           5.3200    -2.3300     0.5590 h1         1 F58       0.034700
     35 H6A          4.0940    -2.1550     1.8160 h1         1 F58       0.034700
     36 HO6          3.9100    -4.1550     0.6130 ho         1 F58       0.503000
     37 H9          -4.0290    -0.7040     1.1360 hc         1 F58       0.058700
     38 H10         -5.6820    -0.8210    -1.4270 hc         1 F58       0.050950
     39 H10A        -5.3120    -2.1880    -0.3890 hc         1 F58       0.050950
     40 H11         -7.5780    -1.2940     0.0780 hc         1 F58       0.041200
     41 H11A        -6.5450    -1.1400     1.4850 hc         1 F58       0.041200
     42 H12         -7.2120     1.0820    -0.5000 hc         1 F58       0.043700
     43 H12A        -7.8040     0.9600     1.1480 hc         1 F58       0.043700
     44 H13         -5.8830     2.5550     0.9750 hc         1 F58       0.041200
     45 H13A        -5.5130     1.2060     2.0340 hc         1 F58       0.041200
     46 H14         -3.6140     1.6680     0.5390 hc         1 F58       0.050950
     47 H14A        -4.6370     1.5020    -0.8780 hc         1 F58       0.050950
@<TRIPOS>BOND
     1     1     2 1   
     2     1     3 1   
     3     1    11 1   
     4     1    24 1   
     5     2    14 1   
     6     2    25 1   
     7     3     5 1   
     8     3     6 1   
     9     3    26 1   
    10     4    14 1   
    11     4    16 1   
    12     4    27 1   
    13     5    28 1   
    14     6     7 1   
    15     6     8 1   
    16     6    29 1   
    17     7    30 1   
    18     8     9 1   
    19     8    10 1   
    20     8    31 1   
    21     9    32 1   
    22    10    11 1   
    23    10    12 1   
    24    10    33 1   
    25    12    13 1   
    26    12    34 1   
    27    12    35 1   
    28    13    36 1   
    29    14    15 2   
    30    16    17 2   
    31    16    18 1   
    32    18    19 1   
    33    18    23 1   
    34    18    37 1   
    35    19    20 1   
    36    19    38 1   
    37    19    39 1   
    38    20    21 1   
    39    20    40 1   
    40    20    41 1   
    41    21    22 1   
    42    21    42 1   
    43    21    43 1   
    44    22    23 1   
    45    22    44 1   
    46    22    45 1   
    47    23    46 1   
    48    23    47 1   
@<TRIPOS>SUBSTRUCTURE
     1 F58         1 TEMP              0 ****  ****    0 ROOT
