@<TRIPOS>MOLECULE
F58
   47    48     1     0     0
SMALL
No Charge or Current Charge


@<TRIPOS>ATOM
      1 C1           1.8300    -0.0510    -0.3940 c6         1 F58       0.309700
      2 N1           0.4190     0.0490    -0.0490 ns         1 F58      -0.523900
      3 C2           2.5490     1.3410    -0.3230 c6         1 F58       0.099300
      4 N2          -1.8060     0.3400    -0.3780 ns         1 F58      -0.496500
      5 O2           2.0630     2.2690    -1.3240 oh         1 F58      -0.713000
      6 C3           4.0800     1.1320    -0.5040 c6         1 F58       0.140300
      7 O3           4.7670     2.3900    -0.3900 oh         1 F58      -0.666000
      8 C4           4.6200     0.1090     0.5360 c6         1 F58       0.142300
      9 O4           6.0300    -0.0940     0.3280 oh         1 F58      -0.714000
     10 C5           3.8040    -1.2170     0.4190 c6         1 F58       0.179300
     11 O5           2.3880    -0.9370     0.5910 os         1 F58      -0.463000
     12 C6           4.2320    -2.2770     1.4890 c3         1 F58       0.172600
     13 O6           3.4550    -3.4920     1.4340 oh         1 F58      -0.705000
     14 C7          -0.5560     0.4920    -0.8900 c          1 F58       0.667100
     15 O7          -0.2960     0.9940    -1.9690 o          1 F58      -0.552100
     16 C8          -3.0230     0.6710    -0.9170 c          1 F58       0.617100
     17 O8          -3.1490     1.2080    -2.0080 o          1 F58      -0.513100
     18 C9          -4.2510     0.3130    -0.0520 c6         1 F58      -0.147700
     19 C10         -5.1600    -0.7710    -0.6960 c6         1 F58      -0.066900
     20 C11         -6.3330    -1.1470     0.2440 c6         1 F58      -0.075400
     21 C12         -7.1300     0.1080     0.6830 c6         1 F58      -0.076400
     22 C13         -6.2100     1.1500     1.3670 c6         1 F58      -0.075400
     23 C14         -5.0350     1.5590     0.4440 c6         1 F58      -0.066900
     24 H1           1.9370    -0.4900    -1.4000 h2         1 F58       0.092700
     25 HN1          0.1370    -0.3480     0.8360 hn         1 F58       0.305500
     26 H2           2.3720     1.7560     0.6800 h1         1 F58       0.047700
     27 HN2         -1.8510    -0.0920     0.5310 hn         1 F58       0.308500
     28 HO2          1.1810     1.9250    -1.6320 ho         1 F58       0.515000
     29 H3           4.2440     0.7140    -1.5100 h1         1 F58       0.060700
     30 HO3          4.1580     3.0410    -0.8130 ho         1 F58       0.466000
     31 H4           4.4520     0.5220     1.5430 h1         1 F58       0.050700
     32 HO4          6.3870     0.8050     0.1240 ho         1 F58       0.525000
     33 H5           3.9610    -1.6560    -0.5770 h1         1 F58       0.068700
     34 H6           5.2950    -2.5080     1.3380 h1         1 F58       0.034700
     35 H6A          4.1380    -1.8150     2.4810 h1         1 F58       0.034700
     36 HO6          3.7550    -4.0580     2.1830 ho         1 F58       0.503000
     37 H9          -3.8420    -0.1530     0.8550 hc         1 F58       0.058700
     38 H10         -5.5590    -0.4000    -1.6500 hc         1 F58       0.050950
     39 H10A        -4.5710    -1.6680    -0.9310 hc         1 F58       0.050950
     40 H11         -7.0020    -1.8560    -0.2620 hc         1 F58       0.041200
     41 H11A        -5.9450    -1.6660     1.1310 hc         1 F58       0.041200
     42 H12         -7.6180     0.5620    -0.1920 hc         1 F58       0.043700
     43 H12A        -7.9350    -0.1860     1.3700 hc         1 F58       0.043700
     44 H13         -6.7930     2.0390     1.6430 hc         1 F58       0.041200
     45 H13A        -5.8160     0.7340     2.3050 hc         1 F58       0.041200
     46 H14         -4.3610     2.2420     0.9810 hc         1 F58       0.050950
     47 H14A        -5.4240     2.1200    -0.4180 hc         1 F58       0.050950
@<TRIPOS>BOND
     1     1     2 1   
     2     1     3 1   
     3     1    11 1   
     4     1    24 1   
     5     2    14 1   
     6     2    25 1   
     7     3     5 1   
     8     3     6 1   
     9     3    26 1   
    10     4    14 1   
    11     4    16 1   
    12     4    27 1   
    13     5    28 1   
    14     6     7 1   
    15     6     8 1   
    16     6    29 1   
    17     7    30 1   
    18     8     9 1   
    19     8    10 1   
    20     8    31 1   
    21     9    32 1   
    22    10    11 1   
    23    10    12 1   
    24    10    33 1   
    25    12    13 1   
    26    12    34 1   
    27    12    35 1   
    28    13    36 1   
    29    14    15 2   
    30    16    17 2   
    31    16    18 1   
    32    18    19 1   
    33    18    23 1   
    34    18    37 1   
    35    19    20 1   
    36    19    38 1   
    37    19    39 1   
    38    20    21 1   
    39    20    40 1   
    40    20    41 1   
    41    21    22 1   
    42    21    42 1   
    43    21    43 1   
    44    22    23 1   
    45    22    44 1   
    46    22    45 1   
    47    23    46 1   
    48    23    47 1   
@<TRIPOS>SUBSTRUCTURE
     1 F58         1 TEMP              0 ****  ****    0 ROOT
