@<TRIPOS>MOLECULE
F59
   51    53     1     0     0
SMALL
abcg2


@<TRIPOS>ATOM
      1 C16         -6.7530    -0.2080    -1.8100 ca         1 F59      -0.095000
      2 C17         -8.0330    -0.5490    -2.2210 ca         1 F59      -0.111000
      3 C18         -8.9950    -0.9060    -1.2860 ca         1 F59      -0.101000
      4 C19         -8.6680    -0.9190     0.0640 ca         1 F59      -0.111000
      5 C20         -7.3890    -0.5760     0.4750 ca         1 F59      -0.095000
      6 C15         -6.4130    -0.2150    -0.4560 cp         1 F59      -0.046000
      7 C12         -5.0520     0.1520    -0.0190 cp         1 F59      -0.003000
      8 C13         -4.8440     0.8550     1.1710 ca         1 F59      -0.111000
      9 C14         -3.5700     1.2100     1.5740 ca         1 F59      -0.070500
     10 C11         -3.9380    -0.1850    -0.7870 ca         1 F59      -0.111000
     11 C10         -2.6600     0.1560    -0.3790 ca         1 F59      -0.070500
     12 C9          -2.4600     0.8530     0.8110 ca         1 F59      -0.161600
     13 C8          -1.1130     1.2790     1.2900 c          1 F59       0.631700
     14 O8          -0.9680     2.2480     2.0000 o          1 F59      -0.515100
     15 N2          -0.0800     0.4730     0.8700 ns         1 F59      -0.491500
     16 C7           1.2790     0.6990     1.0710 c          1 F59       0.665100
     17 O7           1.7240     1.6610     1.6530 o          1 F59      -0.546100
     18 N1           2.0470    -0.2980     0.5500 ns         1 F59      -0.517900
     19 C1           3.4690    -0.2100     0.5160 c6         1 F59       0.307700
     20 O5           3.8520     0.4700    -0.6560 os         1 F59      -0.463000
     21 C5           5.2440     0.6910    -0.7460 c6         1 F59       0.179300
     22 C6           5.5030     1.5360    -1.9740 c3         1 F59       0.172600
     23 O6           4.8690     2.7830    -1.8110 oh         1 F59      -0.704000
     24 C4           5.9670    -0.6550    -0.8150 c6         1 F59       0.142300
     25 O4           7.3500    -0.4120    -0.8620 oh         1 F59      -0.715000
     26 C3           5.5960    -1.4930     0.4040 c6         1 F59       0.139300
     27 O3           6.2130    -2.7490     0.2570 oh         1 F59      -0.666000
     28 C2           4.0850    -1.6120     0.5390 c6         1 F59       0.102300
     29 O2           3.8150    -2.2720     1.7490 oh         1 F59      -0.713000
     30 H16         -6.0190     0.0860    -2.5500 ha         1 F59       0.114500
     31 H17         -8.2780    -0.5310    -3.2750 ha         1 F59       0.115000
     32 H18         -9.9930    -1.1740    -1.6070 ha         1 F59       0.115000
     33 H19         -9.4090    -1.2020     0.8000 ha         1 F59       0.115000
     34 H20         -7.1450    -0.6090     1.5300 ha         1 F59       0.114500
     35 H13         -5.6880     1.1500     1.7800 ha         1 F59       0.121000
     36 H14         -3.4390     1.7660     2.4930 ha         1 F59       0.124000
     37 H11         -4.0620    -0.7340    -1.7120 ha         1 F59       0.121000
     38 H10         -1.8300    -0.1130    -1.0220 ha         1 F59       0.124000
     39 HN2         -0.3370    -0.3810     0.3980 hn         1 F59       0.312500
     40 HN1          1.6190    -0.9830    -0.0570 hn         1 F59       0.302500
     41 H1           3.8050     0.3400     1.4040 h2         1 F59       0.091700
     42 H5           5.6000     1.2340     0.1440 h1         1 F59       0.067700
     43 H6           6.5850     1.6450    -2.0950 h1         1 F59       0.034700
     44 H6A          5.1310     1.0030    -2.8600 h1         1 F59       0.034700
     45 HO6          5.1610     3.3580    -2.5240 ho         1 F59       0.503000
     46 H4           5.6250    -1.1830    -1.7200 h1         1 F59       0.051700
     47 HO4          7.8030    -1.2600    -0.9100 ho         1 F59       0.525000
     48 H3           5.9770    -0.9730     1.2970 h1         1 F59       0.059700
     49 HO3          6.2020    -3.2000     1.1070 ho         1 F59       0.466000
     50 H2           3.6970    -2.1760    -0.3230 h1         1 F59       0.047700
     51 HO2          2.8920    -2.5420     1.7600 ho         1 F59       0.515000
@<TRIPOS>BOND
     1     1     2 ar  
     2     1     6 ar  
     3     1    30 1   
     4     2     3 ar  
     5     2    31 1   
     6     3     4 ar  
     7     3    32 1   
     8     4     5 ar  
     9     4    33 1   
    10     5     6 ar  
    11     5    34 1   
    12     6     7 1   
    13     7     8 ar  
    14     7    10 ar  
    15     8     9 ar  
    16     8    35 1   
    17     9    12 ar  
    18     9    36 1   
    19    10    11 ar  
    20    10    37 1   
    21    11    12 ar  
    22    11    38 1   
    23    12    13 1   
    24    13    14 2   
    25    13    15 1   
    26    15    16 1   
    27    15    39 1   
    28    16    17 2   
    29    16    18 1   
    30    18    19 1   
    31    18    40 1   
    32    19    20 1   
    33    19    28 1   
    34    19    41 1   
    35    20    21 1   
    36    21    22 1   
    37    21    24 1   
    38    21    42 1   
    39    22    23 1   
    40    22    43 1   
    41    22    44 1   
    42    23    45 1   
    43    24    25 1   
    44    24    26 1   
    45    24    46 1   
    46    25    47 1   
    47    26    27 1   
    48    26    28 1   
    49    26    48 1   
    50    27    49 1   
    51    28    29 1   
    52    28    50 1   
    53    29    51 1   
@<TRIPOS>SUBSTRUCTURE
     1 F59         1 TEMP              0 ****  ****    0 ROOT
