@<TRIPOS>MOLECULE
F59
   51    53     1     0     0
SMALL
No Charge or Current Charge


@<TRIPOS>ATOM
      1 C16         -6.6580    -0.8070    -1.7360 ca         1 F59      -0.095000
      2 C17         -7.9440    -1.1760    -2.1670 ca         1 F59      -0.111000
      3 C18         -9.0460    -1.0120    -1.3130 ca         1 F59      -0.101000
      4 C19         -8.8610    -0.4780    -0.0280 ca         1 F59      -0.111000
      5 C20         -7.5750    -0.1080     0.4020 ca         1 F59      -0.095000
      6 C15         -6.4450    -0.2640    -0.4420 cp         1 F59      -0.046000
      7 C12         -5.0740     0.1300     0.0170 cp         1 F59      -0.003000
      8 C13         -4.8770     1.2450     0.8650 ca         1 F59      -0.111000
      9 C14         -3.5920     1.6170     1.2960 ca         1 F59      -0.070500
     10 C11         -3.9290    -0.5990    -0.3810 ca         1 F59      -0.111000
     11 C10         -2.6400    -0.2340     0.0470 ca         1 F59      -0.070500
     12 C9          -2.4510     0.8850     0.8960 ca         1 F59      -0.161600
     13 C8          -1.0810     1.3190     1.3850 c          1 F59       0.631700
     14 O8          -0.9440     2.2880     2.1180 o          1 F59      -0.515100
     15 N2          -0.0160     0.5650     0.9570 ns         1 F59      -0.491500
     16 C7           1.3140     0.7020     1.2180 c          1 F59       0.665100
     17 O7           1.7980     1.5680     1.9270 o          1 F59      -0.546100
     18 N1           2.0660    -0.2630     0.6070 ns         1 F59      -0.517900
     19 C1           3.5250    -0.2760     0.5920 c6         1 F59       0.307700
     20 O5           3.9170     0.6260    -0.4600 os         1 F59      -0.463000
     21 C5           5.3540     0.7980    -0.6010 c6         1 F59       0.179300
     22 C6           5.6190     1.8840    -1.6970 c3         1 F59       0.172600
     23 O6           4.9780     3.1470    -1.4210 oh         1 F59      -0.704000
     24 C4           6.0160    -0.5730    -0.9520 c6         1 F59       0.142300
     25 O4           7.4500    -0.4800    -1.0490 oh         1 F59      -0.715000
     26 C3           5.6310    -1.6180     0.1350 c6         1 F59       0.139300
     27 O3           6.1720    -2.9120    -0.1850 oh         1 F59      -0.666000
     28 C2           4.0860    -1.7060     0.2830 c6         1 F59       0.102300
     29 O2           3.7490    -2.6670     1.3120 oh         1 F59      -0.713000
     30 H16         -5.8210    -0.9290    -2.4180 ha         1 F59       0.114500
     31 H17         -8.0850    -1.5870    -3.1640 ha         1 F59       0.115000
     32 H18        -10.0410    -1.2990    -1.6460 ha         1 F59       0.115000
     33 H19         -9.7130    -0.3530     0.6370 ha         1 F59       0.115000
     34 H20         -7.4520     0.2910     1.4060 ha         1 F59       0.114500
     35 H13         -5.7280     1.8420     1.1830 ha         1 F59       0.121000
     36 H14         -3.4900     2.4850     1.9450 ha         1 F59       0.124000
     37 H11         -4.0390    -1.4710    -1.0200 ha         1 F59       0.121000
     38 H10         -1.8040    -0.8390    -0.2920 ha         1 F59       0.124000
     39 HN2         -0.2590    -0.2030     0.3570 hn         1 F59       0.312500
     40 HN1          1.5860    -0.9130     0.0020 hn         1 F59       0.302500
     41 H1           3.9100     0.0800     1.5610 h2         1 F59       0.091700
     42 H5           5.7620     1.1680     0.3510 h1         1 F59       0.067700
     43 H6           6.7040     2.0290    -1.7820 h1         1 F59       0.034700
     44 H6A          5.2690     1.4870    -2.6600 h1         1 F59       0.034700
     45 HO6          5.1500     3.7320    -2.1960 ho         1 F59       0.503000
     46 H4           5.6030    -0.9110    -1.9140 h1         1 F59       0.051700
     47 HO4          7.7690    -1.4130    -0.9680 ho         1 F59       0.525000
     48 H3           6.0410    -1.2760     1.0980 h1         1 F59       0.059700
     49 HO3          5.6300    -3.5430     0.3450 ho         1 F59       0.466000
     50 H2           3.6660    -2.0330    -0.6800 h1         1 F59       0.047700
     51 HO2          2.7750    -2.6190     1.4580 ho         1 F59       0.515000
@<TRIPOS>BOND
     1     1     2 ar  
     2     1     6 ar  
     3     1    30 1   
     4     2     3 ar  
     5     2    31 1   
     6     3     4 ar  
     7     3    32 1   
     8     4     5 ar  
     9     4    33 1   
    10     5     6 ar  
    11     5    34 1   
    12     6     7 1   
    13     7     8 ar  
    14     7    10 ar  
    15     8     9 ar  
    16     8    35 1   
    17     9    12 ar  
    18     9    36 1   
    19    10    11 ar  
    20    10    37 1   
    21    11    12 ar  
    22    11    38 1   
    23    12    13 1   
    24    13    14 2   
    25    13    15 1   
    26    15    16 1   
    27    15    39 1   
    28    16    17 2   
    29    16    18 1   
    30    18    19 1   
    31    18    40 1   
    32    19    20 1   
    33    19    28 1   
    34    19    41 1   
    35    20    21 1   
    36    21    22 1   
    37    21    24 1   
    38    21    42 1   
    39    22    23 1   
    40    22    43 1   
    41    22    44 1   
    42    23    45 1   
    43    24    25 1   
    44    24    26 1   
    45    24    46 1   
    46    25    47 1   
    47    26    27 1   
    48    26    28 1   
    49    26    48 1   
    50    27    49 1   
    51    28    29 1   
    52    28    50 1   
    53    29    51 1   
@<TRIPOS>SUBSTRUCTURE
     1 F59         1 TEMP              0 ****  ****    0 ROOT
