@<TRIPOS>MOLECULE
F5A
   36    37     1     0     0
SMALL
No Charge or Current Charge


@<TRIPOS>ATOM
      1 C06         -5.7190     3.7670    19.9090 c3         1 F5A       0.034000
      2 C07         -4.6120     3.9610    20.9750 c3         1 F5A      -0.077100
      3 C08         -5.6540     2.3060    19.3710 c3         1 F5A      -0.077100
      4 C09         -6.0050     4.8470    17.6340 ca         1 F5A       0.253100
      5 C10         -7.1020     4.1400    20.5770 c          1 F5A       0.708000
      6 C11         -7.2500     5.3170    15.1310 ca         1 F5A      -0.262600
      7 C12         -7.2890     4.3250    17.3650 ca         1 F5A      -0.201000
      8 C13         -5.3560     5.5970    16.6430 ca         1 F5A      -0.201000
      9 C14         -7.9020     4.5530    16.1220 ca         1 F5A      -0.027000
     10 C15         -5.9640     5.8270    15.3980 ca         1 F5A      -0.027000
     11 C16         -7.8900     5.5580    13.7840 c          1 F5A       0.608300
     12 C17         -9.3930     5.6950    13.6910 ca         1 F5A      -0.150600
     13 C18        -10.0640     5.2920    12.5150 ca         1 F5A      -0.060500
     14 C19        -10.1430     6.2600    14.7490 ca         1 F5A      -0.060500
     15 C20        -11.4600     5.4260    12.4100 ca         1 F5A      -0.121500
     16 C21        -11.5390     6.3920    14.6380 ca         1 F5A      -0.121500
     17 C22        -12.1950     5.9720    13.4720 ca         1 F5A       0.130000
     18 O02         -5.3260     4.6670    18.8300 os         1 F5A      -0.339100
     19 O03         -7.5520     5.2700    20.4290 o          1 F5A      -0.705000
     20 O04         -7.7230     3.2590    21.1590 o          1 F5A      -0.705000
     21 O05         -7.1940     5.6420    12.7770 o          1 F5A      -0.559100
     22 Cl1        -13.9410     6.1410    13.3370 cl         1 F5A      -0.222000
     23 H73         -4.6040     4.9950    21.3420 hc         1 F5A       0.030033
     24 H72         -4.7800     3.3000    21.8350 hc         1 F5A       0.030033
     25 H71         -3.6220     3.7360    20.5610 hc         1 F5A       0.030033
     26 H83         -5.6860     1.5870    20.1990 hc         1 F5A       0.030033
     27 H82         -6.4910     2.0720    18.7050 hc         1 F5A       0.030033
     28 H81         -4.7220     2.1360    18.8190 hc         1 F5A       0.030033
     29 H12         -7.8310     3.7470    18.1030 ha         1 F5A       0.135000
     30 H13         -4.3670     6.0000    16.8420 ha         1 F5A       0.135000
     31 H14         -8.8840     4.1230    15.9310 ha         1 F5A       0.106500
     32 H15         -5.4360     6.4100    14.6450 ha         1 F5A       0.106500
     33 H18         -9.5050     4.8670    11.6830 ha         1 F5A       0.135500
     34 H19         -9.6490     6.6100    15.6530 ha         1 F5A       0.135500
     35 H22        -11.9700     5.1070    11.5040 ha         1 F5A       0.126000
     36 H23        -12.1100     6.8250    15.4560 ha         1 F5A       0.126000
@<TRIPOS>BOND
     1     1     2 1   
     2     1     3 1   
     3     1     5 1   
     4     1    18 1   
     5     2    23 1   
     6     2    24 1   
     7     2    25 1   
     8     3    26 1   
     9     3    27 1   
    10     3    28 1   
    11     4     7 ar  
    12     4     8 ar  
    13     4    18 1   
    14     5    19 1   
    15     5    20 1   
    16     6     9 ar  
    17     6    10 ar  
    18     6    11 1   
    19     7     9 ar  
    20     7    29 1   
    21     8    10 ar  
    22     8    30 1   
    23     9    31 1   
    24    10    32 1   
    25    11    12 1   
    26    11    21 2   
    27    12    13 ar  
    28    12    14 ar  
    29    13    15 ar  
    30    13    33 1   
    31    14    16 ar  
    32    14    34 1   
    33    15    17 ar  
    34    15    35 1   
    35    16    17 ar  
    36    16    36 1   
    37    17    22 1   
@<TRIPOS>SUBSTRUCTURE
     1 F5A         1 TEMP              0 ****  ****    0 ROOT
