@<TRIPOS>MOLECULE
F5A
   36    37     1     0     0
SMALL
abcg2


@<TRIPOS>ATOM
      1 C06         -5.7120     3.7380    19.7950 c3         1 F5A       0.034000
      2 C07         -4.6570     3.9580    20.8750 c3         1 F5A      -0.077100
      3 C08         -5.7530     2.2600    19.4280 c3         1 F5A      -0.077100
      4 C09         -5.9520     4.7450    17.5890 ca         1 F5A       0.253100
      5 C10         -7.0590     4.3150    20.3340 c          1 F5A       0.708000
      6 C11         -7.2720     5.3960    15.1880 ca         1 F5A      -0.262600
      7 C12         -7.2370     4.2570    17.3320 ca         1 F5A      -0.201000
      8 C13         -5.3320     5.5480    16.6180 ca         1 F5A      -0.201000
      9 C14         -7.8790     4.5920    16.1520 ca         1 F5A      -0.027000
     10 C15         -5.9740     5.8540    15.4410 ca         1 F5A      -0.027000
     11 C16         -7.9150     5.7190    13.9010 c          1 F5A       0.608300
     12 C17         -9.4030     5.7290    13.8060 ca         1 F5A      -0.150600
     13 C18        -10.0040     5.3310    12.6130 ca         1 F5A      -0.060500
     14 C19        -10.2060     6.2060    14.8400 ca         1 F5A      -0.060500
     15 C20        -11.3790     5.3800    12.4600 ca         1 F5A      -0.121500
     16 C21        -11.5820     6.2820    14.6920 ca         1 F5A      -0.121500
     17 C22        -12.1560     5.8610    13.5040 ca         1 F5A       0.130000
     18 O02         -5.2260     4.5100    18.6790 os         1 F5A      -0.339100
     19 O03         -7.1720     5.5510    20.3020 o          1 F5A      -0.705000
     20 O04         -7.8660     3.4840    20.7900 o          1 F5A      -0.705000
     21 O05         -7.2530     5.9840    12.9130 o          1 F5A      -0.559100
     22 CL1        -13.8740     5.9410    13.3150 cl         1 F5A      -0.222000
     23 H73         -4.5620     5.0150    21.1260 hc         1 F5A       0.030033
     24 H72         -4.9370     3.4200    21.7810 hc         1 F5A       0.030033
     25 H71         -3.6810     3.5880    20.5540 hc         1 F5A       0.030033
     26 H83         -5.9750     1.6650    20.3110 hc         1 F5A       0.030033
     27 H82         -6.5040     2.0180    18.6770 hc         1 F5A       0.030033
     28 H81         -4.7810     1.9390    19.0480 hc         1 F5A       0.030033
     29 H12         -7.7580     3.6210    18.0320 ha         1 F5A       0.135000
     30 H13         -4.3370     5.9290    16.8110 ha         1 F5A       0.135000
     31 H14         -8.8680     4.1860    15.9800 ha         1 F5A       0.106500
     32 H15         -5.4690     6.4750    14.7120 ha         1 F5A       0.106500
     33 H18         -9.3970     4.9650    11.7950 ha         1 F5A       0.135500
     34 H19         -9.7630     6.5480    15.7660 ha         1 F5A       0.135500
     35 H22        -11.8380     5.0520    11.5370 ha         1 F5A       0.126000
     36 H23        -12.1960     6.6680    15.4950 ha         1 F5A       0.126000
@<TRIPOS>BOND
     1     1     2 1   
     2     1     3 1   
     3     1     5 1   
     4     1    18 1   
     5     2    23 1   
     6     2    24 1   
     7     2    25 1   
     8     3    26 1   
     9     3    27 1   
    10     3    28 1   
    11     4     7 ar  
    12     4     8 ar  
    13     4    18 1   
    14     5    19 1   
    15     5    20 1   
    16     6     9 ar  
    17     6    10 ar  
    18     6    11 1   
    19     7     9 ar  
    20     7    29 1   
    21     8    10 ar  
    22     8    30 1   
    23     9    31 1   
    24    10    32 1   
    25    11    12 1   
    26    11    21 2   
    27    12    13 ar  
    28    12    14 ar  
    29    13    15 ar  
    30    13    33 1   
    31    14    16 ar  
    32    14    34 1   
    33    15    17 ar  
    34    15    35 1   
    35    16    17 ar  
    36    16    36 1   
    37    17    22 1   
@<TRIPOS>SUBSTRUCTURE
     1 F5A         1 TEMP              0 ****  ****    0 ROOT
