@<TRIPOS>MOLECULE
F5B
   12    12     1     0     0
SMALL
No Charge or Current Charge


@<TRIPOS>ATOM
      1 F6          -2.4120    -1.6380    -0.0640 f          1 F5B      -0.143000
      2 C6          -1.2380    -0.9680    -0.0310 ca         1 F5B       0.176000
      3 C1          -1.2250     0.4400    -0.0140 ca         1 F5B       0.097000
      4 F1          -2.3900     1.1300    -0.0300 f          1 F5B      -0.133000
      5 C5          -0.0320    -1.6890    -0.0150 ca         1 F5B      -0.171000
      6 C4           1.1910    -0.9990     0.0190 ca         1 F5B       0.176000
      7 F4           2.3490    -1.6990     0.0350 f          1 F5B      -0.143000
      8 C3           1.2130     0.4090     0.0370 ca         1 F5B       0.097000
      9 F3           2.3950     1.0700     0.0700 f          1 F5B      -0.133000
     10 C2           0.0030     1.1280     0.0200 ca         1 F5B       0.144000
     11 F2           0.0200     2.4820     0.0370 f          1 F5B      -0.131000
     12 H5          -0.0460    -2.7760    -0.0290 ha         1 F5B       0.163000
@<TRIPOS>BOND
     1     1     2 1   
     2     2     3 ar  
     3     2     5 ar  
     4     3     4 1   
     5     3    10 ar  
     6     5     6 ar  
     7     5    12 1   
     8     6     7 1   
     9     6     8 ar  
    10     8     9 1   
    11     8    10 ar  
    12    10    11 1   
@<TRIPOS>SUBSTRUCTURE
     1 F5B         1 TEMP              0 ****  ****    0 ROOT
