@<TRIPOS>MOLECULE
F5C
   18    18     1     0     0
SMALL
No Charge or Current Charge


@<TRIPOS>ATOM
      1 CA          -2.6720    -0.3100    -0.2230 ce         1 F5C      -0.182200
      2 CB          -1.6070     0.4580     0.1760 cf         1 F5C      -0.259200
      3 CG          -0.1430     0.1960     0.1030 ca         1 F5C      -0.030800
      4 CD1          0.7610     1.2880     0.1470 ca         1 F5C       0.150000
      5 FD1          0.2910     2.5560     0.2410 f          1 F5C      -0.144500
      6 CD2          0.3990    -1.1130     0.0050 ca         1 F5C       0.150000
      7 FD2         -0.4060    -2.2010     0.0100 f          1 F5C      -0.144500
      8 CE1          2.1520     1.0840     0.0780 ca         1 F5C       0.090000
      9 FE1          2.9950     2.1440     0.1140 f          1 F5C      -0.153500
     10 CE2          1.7920    -1.3140    -0.0630 ca         1 F5C       0.090000
     11 FE2          2.2910    -2.5710    -0.1520 f          1 F5C      -0.153500
     12 CZ           2.6680    -0.2170    -0.0290 ca         1 F5C       0.099000
     13 FZ           4.0070    -0.4140    -0.0940 f          1 F5C      -0.154000
     14 C           -4.1190     0.0540    -0.0930 c          1 F5C       0.695200
     15 OXT         -4.9440    -0.7440    -0.5110 o          1 F5C      -0.711500
     16 O           -4.4170     1.1220     0.4210 o          1 F5C      -0.711500
     17 H1          -2.5020    -1.2710    -0.6970 ha         1 F5C       0.155000
     18 H3          -1.8600     1.4230     0.6230 ha         1 F5C       0.214000
@<TRIPOS>BOND
     1     1     2 2   
     2     1    14 1   
     3     1    17 1   
     4     2     3 1   
     5     2    18 1   
     6     3     4 ar  
     7     3     6 ar  
     8     4     5 1   
     9     4     8 ar  
    10     6     7 1   
    11     6    10 ar  
    12     8     9 1   
    13     8    12 ar  
    14    10    11 1   
    15    10    12 ar  
    16    12    13 1   
    17    14    15 1   
    18    14    16 1   
@<TRIPOS>SUBSTRUCTURE
     1 F5C         1 TEMP              0 ****  ****    0 ROOT
