@<TRIPOS>MOLECULE
F5C
   18    18     1     0     0
SMALL
bcc


@<TRIPOS>ATOM
      1 CA          -2.5870    -0.2870    -0.2830 ce         1 F5C      -0.132200
      2 CB          -1.6070     0.4330     0.2620 cf         1 F5C      -0.209200
      3 CG          -0.1700     0.1740     0.1420 ca         1 F5C      -0.030800
      4 CD1          0.7250     1.2410     0.1140 ca         1 F5C       0.114900
      5 FD1          0.2570     2.4860     0.1660 f          1 F5C      -0.109400
      6 CD2          0.3920    -1.0980     0.0860 ca         1 F5C       0.114900
      7 FD2         -0.3790    -2.1800     0.1540 f          1 F5C      -0.109400
      8 CE1          2.0900     1.0660     0.0150 ca         1 F5C       0.054900
      9 FE1          2.9050     2.1150    -0.0230 f          1 F5C      -0.118400
     10 CE2          1.7560    -1.2980    -0.0130 ca         1 F5C       0.054900
     11 FE2          2.2520    -2.5300    -0.0590 f          1 F5C      -0.118400
     12 CZ           2.6100    -0.2120    -0.0520 ca         1 F5C       0.063900
     13 FZ           3.9190    -0.3960    -0.1530 f          1 F5C      -0.118900
     14 C           -4.0480     0.0820    -0.1130 c          1 F5C       0.905800
     15 OXT         -4.8510    -0.6370    -0.7400 o          1 F5C      -0.816800
     16 O           -4.3180     1.0530     0.6200 o          1 F5C      -0.816800
     17 H1          -2.3750    -1.1520    -0.9010 ha         1 F5C       0.105000
     18 H3          -1.8850     1.3120     0.8340 ha         1 F5C       0.164000
@<TRIPOS>BOND
     1     1     2 2   
     2     1    14 1   
     3     1    17 1   
     4     2     3 1   
     5     2    18 1   
     6     3     4 ar  
     7     3     6 ar  
     8     4     5 1   
     9     4     8 ar  
    10     6     7 1   
    11     6    10 ar  
    12     8     9 1   
    13     8    12 ar  
    14    10    11 1   
    15    10    12 ar  
    16    12    13 1   
    17    14    15 1   
    18    14    16 1   
@<TRIPOS>SUBSTRUCTURE
     1 F5C         1 TEMP              0 ****  ****    0 ROOT
