@<TRIPOS>MOLECULE
F5E
   75    78     1     0     0
SMALL
bcc


@<TRIPOS>ATOM
      1 C1           0.3310    -1.6440    -1.1650 c3         1 F5E      -0.088100
      2 C2          -0.3700    -0.4000    -1.6970 c3         1 F5E      -0.063700
      3 C3           0.5020     0.3180    -2.7220 c3         1 F5E      -0.088100
      4 C4          -1.7400    -0.7040    -2.3280 c3         1 F5E      -0.025100
      5 C5          -2.7860    -1.2550    -1.3940 ca         1 F5E      -0.119300
      6 C6          -2.7510    -2.6580    -1.1280 ca         1 F5E      -0.112000
      7 C7          -3.6410    -3.3020    -0.3210 ca         1 F5E      -0.097000
      8 C8          -4.6740    -2.5300     0.2510 ca         1 F5E      -0.061000
      9 C9          -5.9300    -0.7480     0.6260 cc         1 F5E      -0.098100
     10 C10         -4.7580    -1.1370    -0.0170 ca         1 F5E      -0.154000
     11 C11         -3.7910    -0.4940    -0.8320 ca         1 F5E       0.180600
     12 C12         -2.0350     2.1130     0.4030 ca         1 F5E      -0.312500
     13 O1          -4.5080     1.7930     1.1320 o          1 F5E      -0.609300
     14 S           -3.7390     2.1070    -0.0580 sy         1 F5E       1.297200
     15 O2          -4.0180     3.3170    -0.8110 o          1 F5E      -0.609300
     16 N3          -3.9720     0.8740    -1.1510 nu         1 F5E      -0.689500
     17 N1          -5.6960    -2.9430     1.0040 nc         1 F5E      -0.295400
     18 N2          -6.4200    -1.8510     1.2010 na         1 F5E       0.177800
     19 C28         -7.6330    -1.9380     1.9810 c3         1 F5E       0.031600
     20 C13         -1.1340     2.8810    -0.3210 ca         1 F5E      -0.026000
     21 C14          0.2020     2.8690     0.0420 ca         1 F5E      -0.149500
     22 C15          0.6520     2.0990     1.1130 ca         1 F5E      -0.019300
     23 C16         -0.2760     1.3410     1.8260 ca         1 F5E      -0.149500
     24 C17         -1.6170     1.3420     1.4810 ca         1 F5E      -0.026000
     25 C18          2.1130     2.0380     1.4470 c3         1 F5E      -0.042100
     26 C19          2.7810     0.8280     0.7890 c3         1 F5E      -0.075400
     27 C20          4.2870     0.7890     1.0050 c3         1 F5E      -0.074400
     28 C21          4.9400    -0.4070     0.3220 c3         1 F5E      -0.070400
     29 C22          6.4480    -0.5170     0.5310 c6         1 F5E      -0.059700
     30 C23          6.9990    -1.8040    -0.0770 c6         1 F5E      -0.072900
     31 C24          8.5080    -1.9010     0.0850 c6         1 F5E       0.167300
     32 N4           9.1750    -0.7520    -0.4950 n3         1 F5E      -0.715600
     33 C25         10.6110    -0.8800    -0.4130 c3         1 F5E       0.153100
     34 C26          8.7200     0.4830     0.1140 c6         1 F5E       0.167300
     35 C27          7.2190     0.6670    -0.0450 c6         1 F5E      -0.072900
     36 H1           1.3140    -1.3860    -0.7680 hc         1 F5E       0.033367
     37 H2          -0.2310    -2.1190    -0.3610 hc         1 F5E       0.033367
     38 H3           0.4770    -2.3860    -1.9560 hc         1 F5E       0.033367
     39 H4          -0.5270     0.2820    -0.8580 hc         1 F5E       0.052700
     40 H5           0.6630    -0.2990    -3.6090 hc         1 F5E       0.033367
     41 H6           0.0420     1.2540    -3.0440 hc         1 F5E       0.033367
     42 H7           1.4810     0.5610    -2.3050 hc         1 F5E       0.033367
     43 H8          -2.0880     0.2090    -2.8180 hc         1 F5E       0.040700
     44 H9          -1.5930    -1.4230    -3.1400 hc         1 F5E       0.040700
     45 H10         -1.9760    -3.2380    -1.6130 ha         1 F5E       0.130000
     46 H11         -3.5790    -4.3690    -0.1520 ha         1 F5E       0.147000
     47 H12         -6.4310     0.2000     0.7110 h4         1 F5E       0.196000
     48 H13         -3.6540     1.1450    -2.0740 hn         1 F5E       0.436800
     49 H14         -8.3430    -2.6030     1.4940 h1         1 F5E       0.063033
     50 H15         -7.4080    -2.3200     2.9740 h1         1 F5E       0.063033
     51 H16         -8.0720    -0.9490     2.0690 h1         1 F5E       0.063033
     52 H17         -1.4600     3.4870    -1.1560 ha         1 F5E       0.155500
     53 H18          0.9070     3.4700    -0.5190 ha         1 F5E       0.137000
     54 H19          0.0520     0.7440     2.6680 ha         1 F5E       0.137000
     55 H20         -2.3210     0.7520     2.0520 ha         1 F5E       0.155500
     56 H21          2.6070     2.9520     1.1070 hc         1 F5E       0.052700
     57 H22          2.2500     1.9860     2.5300 hc         1 F5E       0.052700
     58 H23          2.3230    -0.0890     1.1720 hc         1 F5E       0.043200
     59 H24          2.5690     0.8470    -0.2850 hc         1 F5E       0.043200
     60 H25          4.7190     1.7210     0.6290 hc         1 F5E       0.039700
     61 H26          4.5050     0.7600     2.0780 hc         1 F5E       0.039700
     62 H27          4.4660    -1.3250     0.6890 hc         1 F5E       0.039200
     63 H28          4.7290    -0.3700    -0.7540 hc         1 F5E       0.039200
     64 H29          6.6420    -0.5520     1.6130 hc         1 F5E       0.042700
     65 H30          6.5290    -2.6750     0.3890 hc         1 F5E       0.045700
     66 H31          6.7480    -1.8410    -1.1430 hc         1 F5E       0.045700
     67 H32          8.7500    -2.0060     1.1600 h1         1 F5E       0.029450
     68 H33          8.8780    -2.8050    -0.4060 h1         1 F5E       0.029450
     69 H35         10.9380    -1.7870    -0.9240 h1         1 F5E       0.029367
     70 H36         11.0950    -0.0310    -0.8990 h1         1 F5E       0.029367
     71 H37         10.9850    -0.9280     0.6230 h1         1 F5E       0.029367
     72 H38          8.9760     0.5180     1.1890 h1         1 F5E       0.029450
     73 H39          9.2460     1.3180    -0.3570 h1         1 F5E       0.029450
     74 H40          6.9760     0.7760    -1.1080 hc         1 F5E       0.045700
     75 H41          6.9280     1.6010     0.4420 hc         1 F5E       0.045700
@<TRIPOS>BOND
     1     1     2 1   
     2     1    36 1   
     3     1    37 1   
     4     1    38 1   
     5     2     3 1   
     6     2     4 1   
     7     2    39 1   
     8     3    40 1   
     9     3    41 1   
    10     3    42 1   
    11     4     5 1   
    12     4    43 1   
    13     4    44 1   
    14     5     6 ar  
    15     5    11 ar  
    16     6     7 ar  
    17     6    45 1   
    18     7     8 ar  
    19     7    46 1   
    20     8    10 ar  
    21     8    17 2   
    22     9    10 2   
    23     9    18 1   
    24     9    47 1   
    25    10    11 ar  
    26    11    16 1   
    27    12    14 1   
    28    12    20 ar  
    29    12    24 ar  
    30    13    14 2   
    31    14    15 2   
    32    14    16 1   
    33    16    48 1   
    34    17    18 1   
    35    18    19 1   
    36    19    49 1   
    37    19    50 1   
    38    19    51 1   
    39    20    21 ar  
    40    20    52 1   
    41    21    22 ar  
    42    21    53 1   
    43    22    23 ar  
    44    22    25 1   
    45    23    24 ar  
    46    23    54 1   
    47    24    55 1   
    48    25    26 1   
    49    25    56 1   
    50    25    57 1   
    51    26    27 1   
    52    26    58 1   
    53    26    59 1   
    54    27    28 1   
    55    27    60 1   
    56    27    61 1   
    57    28    29 1   
    58    28    62 1   
    59    28    63 1   
    60    29    30 1   
    61    29    35 1   
    62    29    64 1   
    63    30    31 1   
    64    30    65 1   
    65    30    66 1   
    66    31    32 1   
    67    31    67 1   
    68    31    68 1   
    69    32    33 1   
    70    32    34 1   
    71    33    69 1   
    72    33    70 1   
    73    33    71 1   
    74    34    35 1   
    75    34    72 1   
    76    34    73 1   
    77    35    74 1   
    78    35    75 1   
@<TRIPOS>SUBSTRUCTURE
     1 F5E         1 TEMP              0 ****  ****    0 ROOT
