@<TRIPOS>MOLECULE
F5E
   75    78     1     0     0
SMALL
No Charge or Current Charge


@<TRIPOS>ATOM
      1 C1           0.0130    -0.2750    -2.1300 c3         1 F5E      -0.088100
      2 C2          -1.1760     0.2140    -2.9910 c3         1 F5E      -0.063700
      3 C3          -0.7040     0.6400    -4.3990 c3         1 F5E      -0.088100
      4 C4          -2.3280    -0.8210    -3.0740 c3         1 F5E      -0.025100
      5 C5          -2.8310    -1.3290    -1.7170 ca         1 F5E      -0.119300
      6 C6          -2.3670    -2.5930    -1.2710 ca         1 F5E      -0.094000
      7 C7          -2.8160    -3.1470    -0.0580 ca         1 F5E      -0.079000
      8 C8          -3.7580    -2.4420     0.6980 ca         1 F5E      -0.061000
      9 C9          -5.1840    -0.8260     1.2330 cc         1 F5E      -0.148100
     10 C10         -4.2070    -1.2160     0.2680 ca         1 F5E      -0.154000
     11 C11         -3.7490    -0.5950    -0.9130 ca         1 F5E       0.319000
     12 C12         -2.2410     2.0540     0.0990 ca         1 F5E      -0.312500
     13 O1          -4.8730     2.1150     0.6080 o          1 F5E      -0.538500
     14 S           -3.9310     2.1240    -0.5120 sy         1 F5E       1.155600
     15 O2          -4.0250     3.1000    -1.5990 o          1 F5E      -0.538500
     16 N3          -4.1940     0.6670    -1.3080 nu         1 F5E      -0.883100
     17 N1          -4.3380    -2.8700     1.8940 nc         1 F5E      -0.295400
     18 N2          -5.2160    -1.8280     2.1910 na         1 F5E       0.148500
     19 C28         -6.0620    -1.8840     3.3890 c3         1 F5E       0.060900
     20 C13         -1.2250     2.8170    -0.5120 ca         1 F5E      -0.008000
     21 C14          0.0990     2.7220    -0.0520 ca         1 F5E      -0.131500
     22 C15          0.4220     1.8730     1.0220 ca         1 F5E      -0.019300
     23 C16         -0.5980     1.1300     1.6450 ca         1 F5E      -0.131500
     24 C17         -1.9240     1.2230     1.1920 ca         1 F5E      -0.008000
     25 C18          1.8640     1.7450     1.4910 c3         1 F5E      -0.042100
     26 C19          2.6600     0.7410     0.6300 c3         1 F5E      -0.075400
     27 C20          4.1220     0.5660     1.0930 c3         1 F5E      -0.074400
     28 C21          4.9130    -0.4370     0.2200 c3         1 F5E      -0.070400
     29 C22          6.3690    -0.7350     0.6950 c6         1 F5E      -0.059700
     30 C23          7.0160    -1.8580    -0.1590 c6         1 F5E      -0.072900
     31 C24          8.4710    -2.1430     0.2870 c6         1 F5E       0.167300
     32 N4           9.3090    -0.9150     0.2370 n3         1 F5E      -0.715600
     33 C25         10.7260    -1.1890     0.5570 c3         1 F5E       0.153100
     34 C26          8.7370     0.1660     1.0850 c6         1 F5E       0.167300
     35 C27          7.2880     0.5180     0.6680 c6         1 F5E      -0.072900
     36 H1           0.8120     0.4760    -2.1130 hc         1 F5E       0.033367
     37 H2          -0.2970    -0.4510    -1.0930 hc         1 F5E       0.033367
     38 H3           0.4280    -1.2080    -2.5300 hc         1 F5E       0.033367
     39 H4          -1.5770     1.1120    -2.5140 hc         1 F5E       0.052700
     40 H5          -0.2750    -0.2110    -4.9420 hc         1 F5E       0.033367
     41 H6          -1.5410     1.0370    -4.9860 hc         1 F5E       0.033367
     42 H7           0.0610     1.4240    -4.3310 hc         1 F5E       0.033367
     43 H8          -3.1600    -0.3890    -3.6440 hc         1 F5E       0.040700
     44 H9          -1.9840    -1.6700    -3.6780 hc         1 F5E       0.040700
     45 H10         -1.6550    -3.1530    -1.8720 ha         1 F5E       0.112000
     46 H11         -2.4550    -4.1190     0.2730 ha         1 F5E       0.129000
     47 H12         -5.8620     0.0150     1.2960 h4         1 F5E       0.246000
     48 H13         -3.9510     0.9050    -2.2560 hn         1 F5E       0.492000
     49 H14         -6.9060    -2.5600     3.2070 h1         1 F5E       0.063033
     50 H15         -5.4750    -2.2530     4.2380 h1         1 F5E       0.063033
     51 H16         -6.4420    -0.8820     3.6210 h1         1 F5E       0.063033
     52 H17         -1.4490     3.4720    -1.3530 ha         1 F5E       0.137500
     53 H18          0.8790     3.3000    -0.5420 ha         1 F5E       0.119000
     54 H19         -0.3630     0.4710     2.4770 ha         1 F5E       0.119000
     55 H20         -2.6980     0.6370     1.6850 ha         1 F5E       0.137500
     56 H21          2.3570     2.7240     1.4550 hc         1 F5E       0.052700
     57 H22          1.8940     1.4250     2.5400 hc         1 F5E       0.052700
     58 H23          2.1520    -0.2310     0.6550 hc         1 F5E       0.043200
     59 H24          2.6510     1.0790    -0.4140 hc         1 F5E       0.043200
     60 H25          4.6170     1.5440     1.0700 hc         1 F5E       0.039700
     61 H26          4.1320     0.2230     2.1350 hc         1 F5E       0.039700
     62 H27          4.3490    -1.3780     0.1920 hc         1 F5E       0.039200
     63 H28          4.9310    -0.0650    -0.8120 hc         1 F5E       0.039200
     64 H29          6.2940    -1.0920     1.7330 hc         1 F5E       0.042700
     65 H30          6.4240    -2.7800    -0.0810 hc         1 F5E       0.045700
     66 H31          7.0110    -1.5720    -1.2200 hc         1 F5E       0.045700
     67 H32          8.4590    -2.5540     1.3080 h1         1 F5E       0.029450
     68 H33          8.8940    -2.9190    -0.3680 h1         1 F5E       0.029450
     69 H35         11.1380    -1.9460    -0.1240 h1         1 F5E       0.029367
     70 H36         11.3300    -0.2770     0.4530 h1         1 F5E       0.029367
     71 H37         10.8320    -1.5570     1.5860 h1         1 F5E       0.029367
     72 H38          8.7400    -0.1400     2.1420 h1         1 F5E       0.029450
     73 H39          9.3540     1.0740     1.0110 h1         1 F5E       0.029450
     74 H40          7.2940     0.9570    -0.3390 hc         1 F5E       0.045700
     75 H41          6.9050     1.2920     1.3460 hc         1 F5E       0.045700
@<TRIPOS>BOND
     1     1     2 1   
     2     1    36 1   
     3     1    37 1   
     4     1    38 1   
     5     2     3 1   
     6     2     4 1   
     7     2    39 1   
     8     3    40 1   
     9     3    41 1   
    10     3    42 1   
    11     4     5 1   
    12     4    43 1   
    13     4    44 1   
    14     5     6 ar  
    15     5    11 ar  
    16     6     7 ar  
    17     6    45 1   
    18     7     8 ar  
    19     7    46 1   
    20     8    10 ar  
    21     8    17 2   
    22     9    10 2   
    23     9    18 1   
    24     9    47 1   
    25    10    11 ar  
    26    11    16 1   
    27    12    14 1   
    28    12    20 ar  
    29    12    24 ar  
    30    13    14 2   
    31    14    15 2   
    32    14    16 1   
    33    16    48 1   
    34    17    18 1   
    35    18    19 1   
    36    19    49 1   
    37    19    50 1   
    38    19    51 1   
    39    20    21 ar  
    40    20    52 1   
    41    21    22 ar  
    42    21    53 1   
    43    22    23 ar  
    44    22    25 1   
    45    23    24 ar  
    46    23    54 1   
    47    24    55 1   
    48    25    26 1   
    49    25    56 1   
    50    25    57 1   
    51    26    27 1   
    52    26    58 1   
    53    26    59 1   
    54    27    28 1   
    55    27    60 1   
    56    27    61 1   
    57    28    29 1   
    58    28    62 1   
    59    28    63 1   
    60    29    30 1   
    61    29    35 1   
    62    29    64 1   
    63    30    31 1   
    64    30    65 1   
    65    30    66 1   
    66    31    32 1   
    67    31    67 1   
    68    31    68 1   
    69    32    33 1   
    70    32    34 1   
    71    33    69 1   
    72    33    70 1   
    73    33    71 1   
    74    34    35 1   
    75    34    72 1   
    76    34    73 1   
    77    35    74 1   
    78    35    75 1   
@<TRIPOS>SUBSTRUCTURE
     1 F5E         1 TEMP              0 ****  ****    0 ROOT
