@<TRIPOS>MOLECULE
F5F
   39    40     1     0     0
SMALL
bcc


@<TRIPOS>ATOM
      1 C1         -24.0670    30.1750   -23.0140 cc         1 F5F      -0.321000
      2 C2         -23.6080    31.2570   -23.6820 cd         1 F5F       0.047600
      3 C4         -25.8380    32.1730   -23.9390 c          1 F5F       0.712700
      4 C5         -26.3480    31.0370   -23.2220 cd         1 F5F      -0.248400
      5 C6         -25.4680    30.0750   -22.7830 cc         1 F5F       0.212100
      6 C7         -27.8270    30.9360   -22.9430 c6         1 F5F       0.022500
      7 C10        -28.6920    30.7750   -24.2060 c6         1 F5F      -0.055700
      8 C11        -30.1510    30.5640   -23.8060 c6         1 F5F      -0.068400
      9 C12        -30.6950    31.6750   -22.9150 c6         1 F5F      -0.061700
     10 C13        -29.8040    31.8540   -21.6900 c6         1 F5F      -0.064400
     11 C14        -28.3380    32.0960   -22.0620 c6         1 F5F      -0.029500
     12 C15        -28.2080    29.6250   -25.0800 c3         1 F5F      -0.081100
     13 C16        -32.1390    31.4060   -22.5130 c3         1 F5F      -0.085100
     14 C17        -27.5080    32.2280   -20.8240 c2         1 F5F      -0.152200
     15 C18        -26.8290    33.3110   -20.4650 c2         1 F5F      -0.229000
     16 N3         -24.4630    32.2020   -24.1160 ns         1 F5F      -0.437100
     17 O8         -25.9410    29.0130   -22.1180 oh         1 F5F      -0.482100
     18 O9         -26.5080    33.1000   -24.3990 o          1 F5F      -0.642500
     19 H1         -23.3810    29.4150   -22.6670 ha         1 F5F       0.148000
     20 H2         -22.5630    31.4160   -23.8980 h4         1 F5F       0.150000
     21 H4         -27.9820    30.0240   -22.3550 hc         1 F5F       0.057700
     22 H5         -28.6320    31.7000   -24.7880 hc         1 F5F       0.066700
     23 H6         -30.7660    30.4830   -24.7080 hc         1 F5F       0.036700
     24 H7         -30.2450    29.6030   -23.2820 hc         1 F5F       0.036700
     25 H8         -30.6690    32.6110   -23.4890 hc         1 F5F       0.049700
     26 H9         -30.1680    32.6880   -21.0840 hc         1 F5F       0.038200
     27 H10        -29.8750    30.9580   -21.0600 hc         1 F5F       0.038200
     28 H11        -28.2770    33.0260   -22.6330 hc         1 F5F       0.072700
     29 H12        -27.2010    29.7970   -25.4630 hc         1 F5F       0.029700
     30 H13        -28.1910    28.6860   -24.5200 hc         1 F5F       0.029700
     31 H14        -28.8670    29.4860   -25.9390 hc         1 F5F       0.029700
     32 H15        -32.5440    32.2180   -21.9060 hc         1 F5F       0.031033
     33 H16        -32.7820    31.2960   -23.3880 hc         1 F5F       0.031033
     34 H17        -32.2140    30.4860   -21.9280 hc         1 F5F       0.031033
     35 H18        -27.4900    31.3530   -20.1760 ha         1 F5F       0.112000
     36 H19        -26.2580    33.3470   -19.5460 ha         1 F5F       0.110000
     37 H20        -26.8130    34.2010   -21.0850 ha         1 F5F       0.110000
     38 H21        -25.2230    28.4200   -21.8690 ho         1 F5F       0.430000
     39 H3         -24.0940    33.0000   -24.6130 hn         1 F5F       0.328500
@<TRIPOS>BOND
     1     1     2 2   
     2     1     5 1   
     3     1    19 1   
     4     2    16 1   
     5     2    20 1   
     6     3     4 1   
     7     3    16 1   
     8     3    18 2   
     9     4     5 2   
    10     4     6 1   
    11     5    17 1   
    12     6     7 1   
    13     6    11 1   
    14     6    21 1   
    15     7     8 1   
    16     7    12 1   
    17     7    22 1   
    18     8     9 1   
    19     8    23 1   
    20     8    24 1   
    21     9    10 1   
    22     9    13 1   
    23     9    25 1   
    24    10    11 1   
    25    10    26 1   
    26    10    27 1   
    27    11    14 1   
    28    11    28 1   
    29    12    29 1   
    30    12    30 1   
    31    12    31 1   
    32    13    32 1   
    33    13    33 1   
    34    13    34 1   
    35    14    15 2   
    36    14    35 1   
    37    15    36 1   
    38    15    37 1   
    39    16    39 1   
    40    17    38 1   
@<TRIPOS>SUBSTRUCTURE
     1 F5F         1 TEMP              0 ****  ****    0 ROOT
