@<TRIPOS>MOLECULE
F5F
   39    40     1     0     0
SMALL
No Charge or Current Charge


@<TRIPOS>ATOM
      1 C1         -24.0130    30.1950   -23.0560 cc         1 F5F      -0.371000
      2 C2         -23.5570    31.2730   -23.7740 cd         1 F5F      -0.002400
      3 C4         -25.8290    32.1760   -23.9820 c          1 F5F       0.570200
      4 C5         -26.3110    30.9970   -23.1990 cd         1 F5F      -0.248400
      5 C6         -25.4040    30.0470   -22.7590 cc         1 F5F       0.212100
      6 C7         -27.8180    30.8790   -22.8980 c6         1 F5F       0.022500
      7 C10        -28.6890    30.7240   -24.1890 c6         1 F5F      -0.055700
      8 C11        -30.1880    30.5470   -23.8150 c6         1 F5F      -0.068400
      9 C12        -30.7030    31.7110   -22.9280 c6         1 F5F      -0.061700
     10 C13        -29.8320    31.8510   -21.6520 c6         1 F5F      -0.064400
     11 C14        -28.3340    32.0510   -22.0020 c6         1 F5F      -0.029500
     12 C15        -28.2080    29.5490   -25.0870 c3         1 F5F      -0.081100
     13 C16        -32.2030    31.5300   -22.5720 c3         1 F5F      -0.085100
     14 C17        -27.5080    32.1810   -20.7270 c2         1 F5F      -0.202200
     15 C18        -26.9100    33.3190   -20.3390 c2         1 F5F      -0.329000
     16 N3         -24.4740    32.2070   -24.2020 ns         1 F5F      -0.370100
     17 O8         -25.7520    28.9600   -22.0520 oh         1 F5F      -0.521100
     18 O9         -26.5330    33.0700   -24.4250 o          1 F5F      -0.567000
     19 H1         -23.3040    29.4460   -22.7090 ha         1 F5F       0.198000
     20 H2         -22.5200    31.4670   -24.0450 h4         1 F5F       0.200000
     21 H4         -27.9940    29.9650   -22.3160 hc         1 F5F       0.057700
     22 H5         -28.6050    31.6310   -24.8020 hc         1 F5F       0.066700
     23 H6         -30.7920    30.4890   -24.7310 hc         1 F5F       0.036700
     24 H7         -30.3280    29.5910   -23.2910 hc         1 F5F       0.036700
     25 H8         -30.6350    32.6460   -23.5030 hc         1 F5F       0.049700
     26 H9         -30.1840    32.7030   -21.0540 hc         1 F5F       0.038200
     27 H10        -29.9500    30.9590   -21.0200 hc         1 F5F       0.038200
     28 H11        -28.2590    32.9890   -22.5660 hc         1 F5F       0.072700
     29 H12        -27.1840    29.7080   -25.4460 hc         1 F5F       0.029700
     30 H13        -28.2270    28.5970   -24.5420 hc         1 F5F       0.029700
     31 H14        -28.8470    29.4400   -25.9710 hc         1 F5F       0.029700
     32 H15        -32.5730    32.3730   -21.9770 hc         1 F5F       0.031033
     33 H16        -32.8200    31.4690   -23.4770 hc         1 F5F       0.031033
     34 H17        -32.3680    30.6140   -21.9930 hc         1 F5F       0.031033
     35 H18        -27.4140    31.2750   -20.1240 ha         1 F5F       0.162000
     36 H19        -26.3240    33.3700   -19.4210 ha         1 F5F       0.160000
     37 H20        -26.9830    34.2370   -20.9240 ha         1 F5F       0.160000
     38 H21        -24.9270    28.4660   -21.8730 ho         1 F5F       0.469000
     39 H3         -24.1620    33.0110   -24.7340 hn         1 F5F       0.328500
@<TRIPOS>BOND
     1     1     2 2   
     2     1     5 1   
     3     1    19 1   
     4     2    16 1   
     5     2    20 1   
     6     3     4 1   
     7     3    16 1   
     8     3    18 2   
     9     4     5 2   
    10     4     6 1   
    11     5    17 1   
    12     6     7 1   
    13     6    11 1   
    14     6    21 1   
    15     7     8 1   
    16     7    12 1   
    17     7    22 1   
    18     8     9 1   
    19     8    23 1   
    20     8    24 1   
    21     9    10 1   
    22     9    13 1   
    23     9    25 1   
    24    10    11 1   
    25    10    26 1   
    26    10    27 1   
    27    11    14 1   
    28    11    28 1   
    29    12    29 1   
    30    12    30 1   
    31    12    31 1   
    32    13    32 1   
    33    13    33 1   
    34    13    34 1   
    35    14    15 2   
    36    14    35 1   
    37    15    36 1   
    38    15    37 1   
    39    16    39 1   
    40    17    38 1   
@<TRIPOS>SUBSTRUCTURE
     1 F5F         1 TEMP              0 ****  ****    0 ROOT
