@<TRIPOS>MOLECULE
F5G
   66    68     1     0     0
SMALL
abcg2


@<TRIPOS>ATOM
      1 C15          3.4520     2.8270    -0.0320 c3         1 F5G       0.209600
      2 C17          5.7410     2.3280     0.8600 c5         1 F5G       0.095300
      3 C21          5.1710    -2.3090     0.4790 c          1 F5G       0.618000
      4 C24          3.0000    -2.0340    -1.2890 cc         1 F5G      -0.347200
      5 C01         -5.8160    -1.3390    -0.0580 c6         1 F5G       0.026700
      6 C05         -4.7160    -1.6960    -1.0650 c6         1 F5G       0.185300
      7 C06         -4.5810    -3.1890    -1.2790 c3         1 F5G      -0.085100
      8 C08         -3.4200     0.1790    -0.4320 c6         1 F5G       0.443300
      9 C16          4.2450     2.2590     1.1330 c5         1 F5G       0.161300
     10 C18          5.9660     0.9810     0.1610 c5         1 F5G       0.067300
     11 C19          5.0430     0.0770     0.9780 c5         1 F5G       0.347700
     12 C23          3.5810    -3.3390    -1.1210 c          1 F5G       0.587200
     13 C25          3.5020    -0.9890    -0.6130 cd         1 F5G       0.015600
     14 C34         -4.3970     0.6120     0.6590 c6         1 F5G       0.085700
     15 C37         -3.7390    -0.1030     4.3180 c3         1 F5G      -0.175100
     16 C39         -5.8100     0.1630     0.2690 c6         1 F5G       0.133300
     17 N02         -7.1060    -1.7470    -0.5680 ns         1 F5G      -0.510900
     18 N20          4.5560    -1.0950     0.2520 n          1 F5G      -0.317000
     19 N22          4.6440    -3.3560    -0.2290 ns         1 F5G      -0.476500
     20 N35         -4.0060     0.0410     1.9250 ns         1 F5G      -0.467900
     21 O04         -8.0460    -2.4180     1.3920 o          1 F5G      -0.614100
     22 O07         -3.4740    -1.2200    -0.5820 os         1 F5G      -0.481000
     23 O09         -2.1400     0.5160    -0.0530 os         1 F5G      -0.547400
     24 O11         -1.4080     0.6950    -2.5150 o          1 F5G      -0.840000
     25 O12         -0.0930     1.6710    -0.5230 os         1 F5G      -0.688800
     26 O14          2.0930     2.4930     0.1200 os         1 F5G      -0.563400
     27 O28          3.9540     0.8730     1.3370 os         1 F5G      -0.413000
     28 O29          7.2770     0.5040     0.2120 oh         1 F5G      -0.703000
     29 O30          6.4280     2.3810     2.0820 oh         1 F5G      -0.715000
     30 O31          0.7800     3.7700    -1.6770 o          1 F5G      -0.851500
     31 O32          1.8420     1.4610    -2.2210 o          1 F5G      -0.851500
     32 O33         -0.1380    -0.8800    -0.8640 o          1 F5G      -0.840000
     33 O38         -4.9330     1.6490     3.2090 o          1 F5G      -0.647100
     34 O40         -6.1970     0.9370    -0.8410 oh         1 F5G      -0.644000
     35 P10         -0.8920     0.3740    -1.1490 p5         1 F5G       1.467800
     36 P13          1.1820     2.3930    -1.2520 p5         1 F5G       1.453800
     37 H152         3.5990     3.9130    -0.0400 h1         1 F5G       0.013700
     38 H151         3.8460     2.4460    -0.9820 h1         1 F5G       0.013700
     39 H171         5.9980     3.1750     0.2100 h1         1 F5G       0.046700
     40 H241         2.1340    -1.8960    -1.9160 ha         1 F5G       0.280000
     41 H011        -5.6310    -1.8920     0.8670 h1         1 F5G       0.088700
     42 H031        -8.9780    -2.5070    -0.4150 h5         1 F5G      -0.016800
     43 H051        -4.9470    -1.2110    -2.0270 h1         1 F5G       0.041700
     44 H063        -3.7870    -3.4030    -1.9950 hc         1 F5G       0.038033
     45 H061        -4.3490    -3.6980    -0.3430 hc         1 F5G       0.038033
     46 H081        -3.7030     0.6610    -1.3790 h2         1 F5G       0.067700
     47 H161         3.9820     2.7940     2.0490 h1         1 F5G       0.088700
     48 H181         5.6020     1.0440    -0.8730 h1         1 F5G       0.076700
     49 H191         5.5680    -0.2970     1.8590 h2         1 F5G       0.093700
     50 H251         3.0600    -0.0110    -0.7340 h4         1 F5G       0.279000
     51 H341        -4.3860     1.7010     0.7400 h1         1 F5G       0.106700
     52 H372        -4.5310    -0.2410     5.0530 hc         1 F5G       0.050700
     53 H373        -3.3010    -1.0730     4.0890 hc         1 F5G       0.050700
     54 H371        -2.9710     0.5190     4.7800 hc         1 F5G       0.050700
     55 H391        -6.4820     0.3350     1.1180 h1         1 F5G       0.045700
     56 H021        -7.2810    -1.6640    -1.5590 hn         1 F5G       0.308500
     57 H221         5.0930    -4.2500    -0.0700 hn         1 F5G       0.310500
     58 H351        -3.4580    -0.8040     1.9190 hn         1 F5G       0.337500
     59 H291         7.7830     0.9140    -0.4970 ho         1 F5G       0.496000
     60 H301         7.3380     2.1000     1.9250 ho         1 F5G       0.502000
     61 H401        -7.1280     0.7740    -1.0210 ho         1 F5G       0.423000
     62 O26          3.2230    -4.3660    -1.6710 o          1 F5G      -0.574000
     63 C36         -4.2880     0.6130     3.1090 c          1 F5G       0.603100
     64 C03         -8.0930    -2.2510     0.1870 c          1 F5G       0.594900
     65 O27          6.1050    -2.4540     1.2410 o          1 F5G      -0.610000
     66 H062        -5.5040    -3.6100    -1.6740 hc         1 F5G       0.038033
@<TRIPOS>BOND
     1     1     9 1   
     2     1    26 1   
     3     1    37 1   
     4     1    38 1   
     5     2     9 1   
     6     2    10 1   
     7     2    29 1   
     8     2    39 1   
     9     3    18 1   
    10     3    19 1   
    11     3    65 2   
    12     4    12 1   
    13     4    13 2   
    14     4    40 1   
    15     5     6 1   
    16     5    16 1   
    17     5    17 1   
    18     5    41 1   
    19     6     7 1   
    20     6    22 1   
    21     6    43 1   
    22     7    44 1   
    23     7    45 1   
    24     7    66 1   
    25     8    14 1   
    26     8    22 1   
    27     8    23 1   
    28     8    46 1   
    29     9    27 1   
    30     9    47 1   
    31    10    11 1   
    32    10    28 1   
    33    10    48 1   
    34    11    18 1   
    35    11    27 1   
    36    11    49 1   
    37    12    19 1   
    38    12    62 2   
    39    13    18 1   
    40    13    50 1   
    41    14    16 1   
    42    14    20 1   
    43    14    51 1   
    44    15    52 1   
    45    15    53 1   
    46    15    54 1   
    47    15    63 1   
    48    16    34 1   
    49    16    55 1   
    50    17    56 1   
    51    17    64 1   
    52    19    57 1   
    53    20    58 1   
    54    20    63 1   
    55    21    64 2   
    56    23    35 1   
    57    24    35 1   
    58    25    35 1   
    59    25    36 1   
    60    26    36 1   
    61    28    59 1   
    62    29    60 1   
    63    30    36 1   
    64    31    36 1   
    65    32    35 1   
    66    33    63 2   
    67    34    61 1   
    68    42    64 1   
@<TRIPOS>SUBSTRUCTURE
     1 F5G         1 TEMP              0 ****  ****    0 ROOT
