@<TRIPOS>MOLECULE
F5G
   66    68     1     0     0
SMALL
No Charge or Current Charge


@<TRIPOS>ATOM
      1 C15          2.1360     1.9090     0.2250 c3         1 F5G       0.209600
      2 C17          2.6620     0.5140     2.3620 c5         1 F5G       0.095300
      3 C21          5.9020    -1.8340     0.1960 c          1 F5G       0.618000
      4 C24          5.6400    -0.8050    -2.3830 cc         1 F5G      -0.347200
      5 C01         -5.5700    -0.4140     0.4390 c6         1 F5G       0.026700
      6 C05         -5.2220    -1.8250    -0.1310 c6         1 F5G       0.185300
      7 C06         -5.8120    -2.9780     0.7190 c3         1 F5G      -0.085100
      8 C08         -3.0940    -1.0870    -1.0010 c6         1 F5G       0.443300
      9 C16          1.8910     0.5730     1.0000 c5         1 F5G       0.161300
     10 C18          4.0700     0.1040     1.8500 c5         1 F5G       0.067300
     11 C19          3.6560    -1.0040     0.8200 c5         1 F5G       0.347700
     12 C23          6.8550    -1.5290    -2.0310 c          1 F5G       0.587200
     13 C25          4.6160    -0.6130    -1.4820 cd         1 F5G       0.015600
     14 C34         -3.2650     0.3600    -0.4220 c6         1 F5G       0.085700
     15 C37         -1.6560     1.4810     2.9150 c3         1 F5G      -0.175100
     16 C39         -4.7910     0.6760    -0.3640 c6         1 F5G       0.133300
     17 N02         -7.0310    -0.1590     0.4190 ns         1 F5G      -0.510900
     18 N20          4.7540    -1.1130    -0.1820 n          1 F5G      -0.317000
     19 N22          6.8640    -1.9840    -0.7520 ns         1 F5G      -0.476500
     20 N35         -2.6450     0.4770     0.9210 ns         1 F5G      -0.467900
     21 O04         -7.1210     1.4610     2.0290 o          1 F5G      -0.614100
     22 O07         -3.7940    -2.0150    -0.1470 os         1 F5G      -0.481000
     23 O09         -1.7400    -1.5360    -1.0650 os         1 F5G      -0.547400
     24 O11         -1.4890    -0.3710    -3.2960 o          1 F5G      -0.840000
     25 O12         -0.2980     0.3610    -1.1170 os         1 F5G      -0.688800
     26 O14          0.9840     2.3010    -0.5430 os         1 F5G      -0.563400
     27 O28          2.4110    -0.5530     0.2360 os         1 F5G      -0.413000
     28 O29          4.9170    -0.3680     2.9210 oh         1 F5G      -0.703000
     29 O30          2.1390    -0.4660     3.2690 oh         1 F5G      -0.715000
     30 O31         -0.4220     2.4090    -2.6290 o          1 F5G      -0.851500
     31 O32          1.6610     1.0660    -2.6620 o          1 F5G      -0.851500
     32 O33          0.3780    -1.7390    -2.4120 o          1 F5G      -0.840000
     33 O38         -2.5890     2.7470     1.0840 o          1 F5G      -0.647100
     34 O40         -5.3280     0.8040    -1.6920 oh         1 F5G      -0.644000
     35 P10         -0.7360    -0.8030    -2.0830 p5         1 F5G       1.467800
     36 P13          0.4850     1.5080    -1.8580 p5         1 F5G       1.453800
     37 H152         2.3530     2.6990     0.9540 h1         1 F5G       0.013700
     38 H151         3.0220     1.8140    -0.4160 h1         1 F5G       0.013700
     39 H171         2.6900     1.4990     2.8510 h1         1 F5G       0.046700
     40 H241         5.5950    -0.4400    -3.4030 ha         1 F5G       0.280000
     41 H011        -5.2330    -0.3790     1.4860 h1         1 F5G       0.088700
     42 H031        -8.7870     0.7530     1.0430 h5         1 F5G      -0.016800
     43 H051        -5.6030    -1.9210    -1.1590 h1         1 F5G       0.041700
     44 H063        -5.5110    -3.9540     0.3190 hc         1 F5G       0.038033
     45 H061        -5.4700    -2.9210     1.7600 hc         1 F5G       0.038033
     46 H081        -3.5360    -1.1290    -2.0090 h2         1 F5G       0.067700
     47 H161         0.8140     0.4460     1.1600 h1         1 F5G       0.088700
     48 H181         4.5520     0.9450     1.3290 h1         1 F5G       0.076700
     49 H191         3.5160    -1.9830     1.2980 h2         1 F5G       0.093700
     50 H251         3.6810    -0.1010    -1.7080 h4         1 F5G       0.279000
     51 H341        -2.7900     1.0850    -1.0970 h1         1 F5G       0.106700
     52 H372        -1.3640     2.4370     3.3650 hc         1 F5G       0.050700
     53 H373        -2.3290     0.9220     3.5750 hc         1 F5G       0.050700
     54 H371        -0.8060     0.7960     2.8200 hc         1 F5G       0.050700
     55 H391        -4.9180     1.6350     0.1590 h1         1 F5G       0.045700
     56 H021        -7.6130    -0.7090    -0.2030 hn         1 F5G       0.308500
     57 H221         7.6860    -2.4920    -0.4680 hn         1 F5G       0.310500
     58 H351        -2.3670    -0.3800     1.3850 hn         1 F5G       0.337500
     59 H291         5.5020    -1.0720     2.5270 ho         1 F5G       0.496000
     60 H301         2.9180    -0.7440     3.8080 ho         1 F5G       0.502000
     61 H401        -6.2780     1.0260    -1.5830 ho         1 F5G       0.423000
     62 O26          7.7840    -1.7230    -2.7950 o          1 F5G      -0.574000
     63 C36         -2.3320     1.6510     1.5590 c          1 F5G       0.603100
     64 C03         -7.6950     0.7470     1.2180 c          1 F5G       0.594900
     65 O27          6.0620    -2.2810     1.3210 o          1 F5G      -0.610000
     66 H062        -6.9070    -2.9490     0.7250 hc         1 F5G       0.038033
@<TRIPOS>BOND
     1     1     9 1   
     2     1    26 1   
     3     1    37 1   
     4     1    38 1   
     5     2     9 1   
     6     2    10 1   
     7     2    29 1   
     8     2    39 1   
     9     3    18 1   
    10     3    19 1   
    11     3    65 2   
    12     4    12 1   
    13     4    13 2   
    14     4    40 1   
    15     5     6 1   
    16     5    16 1   
    17     5    17 1   
    18     5    41 1   
    19     6     7 1   
    20     6    22 1   
    21     6    43 1   
    22     7    44 1   
    23     7    45 1   
    24     7    66 1   
    25     8    14 1   
    26     8    22 1   
    27     8    23 1   
    28     8    46 1   
    29     9    27 1   
    30     9    47 1   
    31    10    11 1   
    32    10    28 1   
    33    10    48 1   
    34    11    18 1   
    35    11    27 1   
    36    11    49 1   
    37    12    19 1   
    38    12    62 2   
    39    13    18 1   
    40    13    50 1   
    41    14    16 1   
    42    14    20 1   
    43    14    51 1   
    44    15    52 1   
    45    15    53 1   
    46    15    54 1   
    47    15    63 1   
    48    16    34 1   
    49    16    55 1   
    50    17    56 1   
    51    17    64 1   
    52    19    57 1   
    53    20    58 1   
    54    20    63 1   
    55    21    64 2   
    56    23    35 1   
    57    24    35 1   
    58    25    35 1   
    59    25    36 1   
    60    26    36 1   
    61    28    59 1   
    62    29    60 1   
    63    30    36 1   
    64    31    36 1   
    65    32    35 1   
    66    33    63 2   
    67    34    61 1   
    68    42    64 1   
@<TRIPOS>SUBSTRUCTURE
     1 F5G         1 TEMP              0 ****  ****    0 ROOT
