@<TRIPOS>MOLECULE
F5J
   43    46     1     0     0
SMALL
bcc


@<TRIPOS>ATOM
      1 C7          -1.1150     0.5560    -1.3650 cc         1 F5J      -0.126100
      2 C6          -2.1310     1.4580    -1.4220 cd         1 F5J      -0.151200
      3 C1           3.7590     3.1360     1.0360 ca         1 F5J      -0.120000
      4 C5           4.1230     0.7670     0.8140 ca         1 F5J      -0.108000
      5 C4           2.4440     1.8450    -0.5090 ca         1 F5J      -0.108000
      6 C3           4.4410     1.9830     1.4020 ca         1 F5J      -0.125500
      7 C2           2.7570     3.0640     0.0780 ca         1 F5J      -0.125500
      8 C8          -4.0620     0.0630     1.8530 ca         1 F5J       0.706900
      9 C9          -2.9920     1.1620    -0.3220 ca         1 F5J      -0.390400
     10 C10          3.1190     0.6850    -0.1480 ca         1 F5J      -0.104300
     11 C11         -2.4390     0.0740     0.3560 ca         1 F5J       0.500800
     12 C12         -4.1890     1.6680     0.2210 ca         1 F5J       0.758200
     13 C13          1.3760    -2.7760    -0.4290 c5         1 F5J       0.087100
     14 C14          0.0210    -2.2980    -0.9530 c5         1 F5J       0.062100
     15 C15          1.9270    -1.4950     0.1880 c5         1 F5J       0.112100
     16 C16         -0.4010    -1.3250     0.1440 c5         1 F5J       0.257800
     17 C17          2.7570    -0.6410    -0.7800 c3         1 F5J       0.181400
     18 N18         -2.9430    -0.5030     1.4480 nb         1 F5J      -0.751000
     19 N19         -4.7030     1.0970     1.3130 nb         1 F5J      -0.825000
     20 N20         -1.2990    -0.2950    -0.2920 na         1 F5J      -0.161100
     21 N21         -4.8510     2.6950    -0.3300 nv         1 F5J      -0.958500
     22 O22          0.7920    -0.7500     0.6210 os         1 F5J      -0.391600
     23 O23          1.2150    -3.7220     0.5990 oh         1 F5J      -0.584800
     24 O24         -0.9430    -3.2990    -1.0960 oh         1 F5J      -0.571800
     25 O25          3.8780    -1.3520    -1.2440 oh         1 F5J      -0.586800
     26 H1          -0.2690     0.4530    -2.0240 h4         1 F5J       0.160000
     27 H2          -2.2400     2.2310    -2.1650 ha         1 F5J       0.150000
     28 H4           4.6700    -0.1160     1.1250 ha         1 F5J       0.123500
     29 H5           1.6640     1.8010    -1.2590 ha         1 F5J       0.123500
     30 H6           5.2240     2.0290     2.1480 ha         1 F5J       0.131500
     31 H7           2.2190     3.9570    -0.2150 ha         1 F5J       0.131500
     32 H8          -4.5220    -0.3620     2.7390 h5         1 F5J       0.045100
     33 H9           2.0150    -3.1570    -1.2330 h1         1 F5J       0.068700
     34 H10          0.1790    -1.7610    -1.8970 h1         1 F5J       0.051700
     35 H11          2.5430    -1.7350     1.0640 h1         1 F5J       0.089700
     36 H12         -0.9170    -1.8660     0.9430 h2         1 F5J       0.125700
     37 H13          2.1530    -0.4340    -1.6710 h1         1 F5J       0.071700
     38 H14         -4.4250     3.2570    -1.0460 hn         1 F5J       0.437300
     39 H15         -5.6190     3.1060     0.1730 hn         1 F5J       0.437300
     40 H16          0.5970    -4.3950     0.2900 ho         1 F5J       0.423000
     41 H17         -0.8260    -3.7200    -1.9540 ho         1 F5J       0.415000
     42 H18          4.3970    -1.6640    -0.4950 ho         1 F5J       0.408000
     43 H3           4.0060     4.0850     1.4960 ha         1 F5J       0.131000
@<TRIPOS>BOND
     1     1     2 2   
     2     1    20 1   
     3     1    26 1   
     4     2     9 1   
     5     2    27 1   
     6     3     6 ar  
     7     3     7 ar  
     8     3    43 1   
     9     4     6 ar  
    10     4    10 ar  
    11     4    28 1   
    12     5     7 ar  
    13     5    10 ar  
    14     5    29 1   
    15     6    30 1   
    16     7    31 1   
    17     8    18 ar  
    18     8    19 ar  
    19     8    32 1   
    20     9    11 ar  
    21     9    12 ar  
    22    10    17 1   
    23    11    18 ar  
    24    11    20 1   
    25    12    19 ar  
    26    12    21 1   
    27    13    14 1   
    28    13    15 1   
    29    13    23 1   
    30    13    33 1   
    31    14    16 1   
    32    14    24 1   
    33    14    34 1   
    34    15    17 1   
    35    15    22 1   
    36    15    35 1   
    37    16    20 1   
    38    16    22 1   
    39    16    36 1   
    40    17    25 1   
    41    17    37 1   
    42    21    38 1   
    43    21    39 1   
    44    23    40 1   
    45    24    41 1   
    46    25    42 1   
@<TRIPOS>SUBSTRUCTURE
     1 F5J         1 TEMP              0 ****  ****    0 ROOT
