@<TRIPOS>MOLECULE
F5J
   43    46     1     0     0
SMALL
No Charge or Current Charge


@<TRIPOS>ATOM
      1 C7          -1.5150    -0.4970    -1.8020 cc         1 F5J      -0.176100
      2 C6          -2.0600     0.7680    -1.6960 cd         1 F5J      -0.201200
      3 C1           1.7390     3.1320     1.6430 ca         1 F5J      -0.102000
      4 C5           2.5760     0.8530     1.4510 ca         1 F5J      -0.090000
      5 C4           1.3760     1.8680    -0.4050 ca         1 F5J      -0.090000
      6 C3           2.4200     2.0350     2.1960 ca         1 F5J      -0.107500
      7 C2           1.2190     3.0480     0.3410 ca         1 F5J      -0.107500
      8 C8          -1.6290     1.5260     2.2660 ca         1 F5J       0.180900
      9 C9          -1.9900     1.2210    -0.3340 ca         1 F5J      -0.259800
     10 C10          2.0480     0.7560     0.1450 ca         1 F5J      -0.104300
     11 C11         -1.3980     0.2170     0.3930 ca         1 F5J       0.172500
     12 C12         -2.3930     2.3990     0.2980 ca         1 F5J       0.429900
     13 C13          1.7350    -3.1230    -0.7730 c5         1 F5J       0.110300
     14 C14          0.2530    -2.9580    -1.2470 c5         1 F5J       0.085300
     15 C15          1.9200    -1.8540     0.1130 c5         1 F5J       0.135300
     16 C16         -0.4100    -2.0850    -0.0980 c5         1 F5J       0.310300
     17 C17          2.1870    -0.5260    -0.6800 c3         1 F5J       0.204600
     18 N18         -1.2160     0.3540     1.7240 nb         1 F5J      -0.225000
     19 N19         -2.2120     2.5630     1.6160 nb         1 F5J      -0.299000
     20 N20         -1.0830    -0.8240    -0.4880 na         1 F5J      -0.190400
     21 N21         -2.9780     3.4270    -0.3660 nv         1 F5J      -1.068900
     22 O22          0.6660    -1.8060     0.8310 os         1 F5J      -0.438000
     23 O23          1.8520    -4.3440    -0.0350 oh         1 F5J      -0.707000
     24 O24         -0.3550    -4.2580    -1.4250 oh         1 F5J      -0.694000
     25 O25          3.5030    -0.5590    -1.2500 oh         1 F5J      -0.709000
     26 H1          -1.4170    -1.1510    -2.6630 h4         1 F5J       0.210000
     27 H2          -2.4940     1.3210    -2.5280 ha         1 F5J       0.200000
     28 H4           3.1080     0.0150     1.8940 ha         1 F5J       0.105500
     29 H5           0.9590     1.8130    -1.4080 ha         1 F5J       0.105500
     30 H6           2.8250     2.1000     3.2030 ha         1 F5J       0.113500
     31 H7           0.6900     3.8950    -0.0890 ha         1 F5J       0.113500
     32 H8          -1.4770     1.6450     3.3380 h5         1 F5J       0.045100
     33 H9           2.4310    -3.1220    -1.6250 h1         1 F5J       0.068700
     34 H10          0.2570    -2.4150    -2.2010 h1         1 F5J       0.051700
     35 H11          2.7370    -1.9950     0.8330 h1         1 F5J       0.089700
     36 H12         -1.1820    -2.6700     0.4180 h2         1 F5J       0.125700
     37 H13          1.4500    -0.4720    -1.4930 h1         1 F5J       0.071700
     38 H14         -2.9040     3.4430    -1.3780 hn         1 F5J       0.492500
     39 H15         -3.0370     4.3280     0.1010 hn         1 F5J       0.492500
     40 H16          1.0320    -4.8270    -0.3200 ho         1 F5J       0.522000
     41 H17         -1.1620    -4.1410    -1.9830 ho         1 F5J       0.514000
     42 H18          3.7080     0.3620    -1.5320 ho         1 F5J       0.507000
     43 H3           1.6150     4.0450     2.2210 ha         1 F5J       0.113000
@<TRIPOS>BOND
     1     1     2 2   
     2     1    20 1   
     3     1    26 1   
     4     2     9 1   
     5     2    27 1   
     6     3     6 ar  
     7     3     7 ar  
     8     3    43 1   
     9     4     6 ar  
    10     4    10 ar  
    11     4    28 1   
    12     5     7 ar  
    13     5    10 ar  
    14     5    29 1   
    15     6    30 1   
    16     7    31 1   
    17     8    18 ar  
    18     8    19 ar  
    19     8    32 1   
    20     9    11 ar  
    21     9    12 ar  
    22    10    17 1   
    23    11    18 ar  
    24    11    20 1   
    25    12    19 ar  
    26    12    21 1   
    27    13    14 1   
    28    13    15 1   
    29    13    23 1   
    30    13    33 1   
    31    14    16 1   
    32    14    24 1   
    33    14    34 1   
    34    15    17 1   
    35    15    22 1   
    36    15    35 1   
    37    16    20 1   
    38    16    22 1   
    39    16    36 1   
    40    17    25 1   
    41    17    37 1   
    42    21    38 1   
    43    21    39 1   
    44    23    40 1   
    45    24    41 1   
    46    25    42 1   
@<TRIPOS>SUBSTRUCTURE
     1 F5J         1 TEMP              0 ****  ****    0 ROOT
