@<TRIPOS>MOLECULE
F5M
   44    48     1     0     0
SMALL
No Charge or Current Charge


@<TRIPOS>ATOM
      1 C1           3.4830    -3.5090     0.6670 ca         1 F5M       0.183100
      2 O1           4.1950    -4.6410     0.9180 oh         1 F5M      -0.533100
      3 C2           4.1430    -2.3230     0.3350 ca         1 F5M      -0.258000
      4 O2           4.1640    -0.0390    -0.2700 os         1 F5M      -0.302000
      5 C3           3.4150    -1.1510     0.0680 ca         1 F5M       0.250000
      6 O3           4.3070     4.2990    -1.8850 o          1 F5M      -0.608100
      7 C4           3.4230     1.0550    -0.6470 cc         1 F5M       0.256000
      8 O4           0.5520     0.3860     2.7320 o          1 F5M      -0.692500
      9 C5           4.2050     2.0920    -1.0820 cd         1 F5M      -0.400200
     10 O5          -0.7370    -1.2980     3.1080 o          1 F5M      -0.692500
     11 C6           3.6210     3.3690    -1.4900 c          1 F5M       0.591500
     12 C7           2.1560     3.4580    -1.3800 cd         1 F5M      -0.326200
     13 C8           1.3670     2.4150    -0.9380 cc         1 F5M      -0.062200
     14 C9           1.9950     1.1660    -0.5770 cc         1 F5M      -0.183800
     15 C10          1.2670     0.0840    -0.1240 cd         1 F5M       0.215000
     16 C11          2.0040    -1.1580     0.1580 ca         1 F5M      -0.139000
     17 C12          1.3480    -2.3740     0.4690 ca         1 F5M       0.016000
     18 C13          2.0890    -3.5380     0.7260 ca         1 F5M      -0.186000
     19 C14         -0.2160     0.0600    -0.1350 ca         1 F5M      -0.061000
     20 C15         -0.8970     0.2910    -1.3490 ca         1 F5M      -0.114000
     21 C16         -2.2970     0.2340    -1.4130 ca         1 F5M      -0.121000
     22 C17         -3.0520    -0.0540    -0.2630 ca         1 F5M       0.024600
     23 C18         -2.3800    -0.2740     0.9540 ca         1 F5M      -0.070000
     24 C19         -0.9720    -0.2150     1.0370 ca         1 F5M      -0.108600
     25 C20         -0.3180    -0.4020     2.3900 c          1 F5M       0.710600
     26 NAB         -4.4890    -0.1120    -0.3300 n          1 F5M      -0.307600
     27 CAZ         -5.2000    -0.7600    -1.3520 c          1 F5M       0.556700
     28 CBA         -6.6090    -0.5600    -1.0130 cc         1 F5M      -0.241200
     29 CBB         -6.6930     0.1650     0.1500 cd         1 F5M      -0.241200
     30 CBC         -5.3400     0.4740     0.6200 c          1 F5M       0.556700
     31 OBJ         -5.0230     1.1150     1.6110 o          1 F5M      -0.465000
     32 OBK         -4.7420    -1.3730    -2.3050 o          1 F5M      -0.465000
     33 HO1          5.1480    -4.4300     0.8270 ho         1 F5M       0.463000
     34 H2           5.2270    -2.2960     0.2720 ha         1 F5M       0.125000
     35 H5           5.2820     2.0240    -1.1390 ha         1 F5M       0.195000
     36 H7           1.7340     4.4140    -1.6670 ha         1 F5M       0.185000
     37 H8           0.2910     2.5470    -0.8540 ha         1 F5M       0.191000
     38 H12          0.2640    -2.4410     0.5010 ha         1 F5M       0.138000
     39 H13          1.5750    -4.4650     0.9690 ha         1 F5M       0.128000
     40 H15         -0.3330     0.4950    -2.2570 ha         1 F5M       0.107000
     41 H16         -2.7920     0.4220    -2.3630 ha         1 F5M       0.107000
     42 H18         -2.9530    -0.4930     1.8520 ha         1 F5M       0.148000
     43 HBA         -7.4120    -0.9560    -1.6260 ha         1 F5M       0.215000
     44 HBB         -7.5750     0.4960     0.6890 ha         1 F5M       0.215000
@<TRIPOS>BOND
     1     1     2 1   
     2     1     3 ar  
     3     1    18 ar  
     4     2    33 1   
     5     3     5 ar  
     6     3    34 1   
     7     4     5 1   
     8     4     7 1   
     9     5    16 ar  
    10     6    11 2   
    11     7     9 2   
    12     7    14 1   
    13     8    25 1   
    14     9    11 1   
    15     9    35 1   
    16    10    25 1   
    17    11    12 1   
    18    12    13 2   
    19    12    36 1   
    20    13    14 1   
    21    13    37 1   
    22    14    15 2   
    23    15    16 1   
    24    15    19 1   
    25    16    17 ar  
    26    17    18 ar  
    27    17    38 1   
    28    18    39 1   
    29    19    20 ar  
    30    19    24 ar  
    31    20    21 ar  
    32    20    40 1   
    33    21    22 ar  
    34    21    41 1   
    35    22    23 ar  
    36    22    26 1   
    37    23    24 ar  
    38    23    42 1   
    39    24    25 1   
    40    26    27 1   
    41    26    30 1   
    42    27    28 1   
    43    27    32 2   
    44    28    29 2   
    45    28    43 1   
    46    29    30 1   
    47    29    44 1   
    48    30    31 2   
@<TRIPOS>SUBSTRUCTURE
     1 F5M         1 TEMP              0 ****  ****    0 ROOT
