@<TRIPOS>MOLECULE
F5M
   44    48     1     0     0
SMALL
bcc


@<TRIPOS>ATOM
      1 C1           3.5290    -3.5670     0.2370 ca         1 F5M       0.183100
      2 O1           4.2080    -4.7100     0.3680 oh         1 F5M      -0.494100
      3 C2           4.1540    -2.3520    -0.0060 ca         1 F5M      -0.341300
      4 O2           4.0270    -0.0580    -0.3520 os         1 F5M      -0.390800
      5 C3           3.3750    -1.2110    -0.1200 ca         1 F5M       0.425000
      6 O3           4.1330     4.5380    -1.1650 o          1 F5M      -0.608100
      7 C4           3.3700     1.1110    -0.5070 cc         1 F5M       0.365700
      8 O4           0.9300     0.1350     2.3880 o          1 F5M      -0.797800
      9 C5           4.1120     2.2210    -0.7620 cd         1 F5M      -0.350200
     10 O5          -1.0580     0.1870     3.4020 o          1 F5M      -0.797800
     11 C6           3.4870     3.5090    -0.9340 c          1 F5M       0.591500
     12 C7           2.0300     3.5300    -0.8180 cd         1 F5M      -0.276200
     13 C8           1.3150     2.4150    -0.5650 cc         1 F5M      -0.012200
     14 C9           1.9420     1.1380    -0.4000 cc         1 F5M      -0.249100
     15 C10          1.2570    -0.0180    -0.1120 cd         1 F5M       0.215000
     16 C11          1.9830    -1.2430    -0.0010 ca         1 F5M      -0.204300
     17 C12          1.3830    -2.4900     0.2400 ca         1 F5M      -0.002000
     18 C13          2.1300    -3.6340     0.3560 ca         1 F5M      -0.204000
     19 C14         -0.2260    -0.0460    -0.1200 ca         1 F5M      -0.061000
     20 C15         -0.8560    -0.1420    -1.3580 ca         1 F5M      -0.132000
     21 C16         -2.2370    -0.1740    -1.4470 ca         1 F5M      -0.139000
     22 C17         -2.9910    -0.1220    -0.2830 ca         1 F5M       0.024600
     23 C18         -2.3700    -0.0340     0.9520 ca         1 F5M      -0.088000
     24 C19         -0.9850     0.0110     1.0480 ca         1 F5M      -0.108600
     25 C20         -0.3140     0.1210     2.4090 c          1 F5M       0.921200
     26 NAB         -4.4020    -0.1510    -0.3570 n          1 F5M      -0.441600
     27 CAZ         -5.1510    -1.2250    -0.8210 c          1 F5M       0.699200
     28 CBA         -6.5790    -0.8120    -0.7110 cc         1 F5M      -0.191200
     29 CBB         -6.6280     0.4190    -0.2180 cd         1 F5M      -0.191200
     30 CBC         -5.2360     0.8910     0.0270 c          1 F5M       0.699200
     31 OBJ         -4.8740     1.9500     0.4630 o          1 F5M      -0.540500
     32 OBK         -4.7060    -2.2670    -1.2210 o          1 F5M      -0.540500
     33 HO1          5.1580    -4.5600     0.2850 ho         1 F5M       0.424000
     34 H2           5.2310    -2.2830    -0.1020 ha         1 F5M       0.143000
     35 H5           5.1900     2.1470    -0.8360 ha         1 F5M       0.145000
     36 H7           1.5300     4.4830    -0.9390 ha         1 F5M       0.135000
     37 H8           0.2370     2.4750    -0.4810 ha         1 F5M       0.141000
     38 H12          0.3080    -2.5500     0.3360 ha         1 F5M       0.156000
     39 H13          1.6540    -4.5870     0.5450 ha         1 F5M       0.146000
     40 H15         -0.2620    -0.1860    -2.2630 ha         1 F5M       0.125000
     41 H16         -2.7190    -0.2300    -2.4140 ha         1 F5M       0.125000
     42 H18         -2.9620    -0.0020     1.8570 ha         1 F5M       0.166000
     43 HBA         -7.3950    -1.4570    -0.9990 ha         1 F5M       0.165000
     44 HBB         -7.4940     1.0290    -0.0090 ha         1 F5M       0.165000
@<TRIPOS>BOND
     1     1     2 1   
     2     1     3 ar  
     3     1    18 ar  
     4     2    33 1   
     5     3     5 ar  
     6     3    34 1   
     7     4     5 1   
     8     4     7 1   
     9     5    16 ar  
    10     6    11 2   
    11     7     9 2   
    12     7    14 1   
    13     8    25 1   
    14     9    11 1   
    15     9    35 1   
    16    10    25 1   
    17    11    12 1   
    18    12    13 2   
    19    12    36 1   
    20    13    14 1   
    21    13    37 1   
    22    14    15 2   
    23    15    16 1   
    24    15    19 1   
    25    16    17 ar  
    26    17    18 ar  
    27    17    38 1   
    28    18    39 1   
    29    19    20 ar  
    30    19    24 ar  
    31    20    21 ar  
    32    20    40 1   
    33    21    22 ar  
    34    21    41 1   
    35    22    23 ar  
    36    22    26 1   
    37    23    24 ar  
    38    23    42 1   
    39    24    25 1   
    40    26    27 1   
    41    26    30 1   
    42    27    28 1   
    43    27    32 2   
    44    28    29 2   
    45    28    43 1   
    46    29    30 1   
    47    29    44 1   
    48    30    31 2   
@<TRIPOS>SUBSTRUCTURE
     1 F5M         1 TEMP              0 ****  ****    0 ROOT
