@<TRIPOS>MOLECULE
F5N
   32    34     1     0     0
SMALL
abcg2


@<TRIPOS>ATOM
      1 O1          -0.7310    -0.4010    -1.1710 o          1 F5N      -0.568100
      2 C2          -0.9550     0.5670    -0.4710 c          1 F5N       0.616100
      3 C3           0.1130     1.6060    -0.1680 c3         1 F5N      -0.081200
      4 C4           1.4700     1.0020    -0.1050 cc         1 F5N       0.074400
      5 C5           2.4870     1.1550    -1.0090 cd         1 F5N      -0.264100
      6 N6           3.5240     0.4060    -0.5170 na         1 F5N       0.134100
      7 C7           4.7800     0.1990    -1.0050 cc         1 F5N      -0.108000
      8 C8           5.6350    -0.5970    -0.3160 cd         1 F5N      -0.142000
      9 C9           5.2220    -1.2050     0.8990 cd         1 F5N      -0.106000
     10 C10          3.9650    -0.9930     1.3850 cc         1 F5N      -0.070000
     11 C11          3.0800    -0.1640     0.6640 cd         1 F5N      -0.073000
     12 N12          1.8360     0.1940     0.9210 nc         1 F5N      -0.285600
     13 N13         -2.1600     0.8500     0.0840 ns         1 F5N      -0.149000
     14 C14         -3.3710     0.1570    -0.0150 ca         1 F5N      -0.015000
     15 C15         -3.5810    -0.9520    -0.8370 ca         1 F5N      -0.151000
     16 C16         -4.8290    -1.5610    -0.8610 ca         1 F5N      -0.083500
     17 C17         -5.8780    -1.0900    -0.0850 ca         1 F5N      -0.139000
     18 C18         -5.6670     0.0140     0.7310 ca         1 F5N      -0.083500
     19 C19         -4.4290     0.6320     0.7660 ca         1 F5N      -0.151000
     20 H3           0.0720     2.3560    -0.9630 hc         1 F5N       0.068200
     21 H3A         -0.1080     2.1300     0.7650 hc         1 F5N       0.068200
     22 H5           2.5610     1.7120    -1.9280 h4         1 F5N       0.232000
     23 H7           5.0290     0.6890    -1.9350 h4         1 F5N       0.143000
     24 H8           6.6290    -0.7600    -0.7030 ha         1 F5N       0.130000
     25 H9           5.9120    -1.8400     1.4360 ha         1 F5N       0.124000
     26 H10          3.6250    -1.4420     2.3070 ha         1 F5N       0.143000
     27 HN13        -2.1930     1.6740     0.6650 hn         1 F5N       0.148000
     28 H15         -2.7900    -1.3430    -1.4540 ha         1 F5N       0.126500
     29 H16         -4.9740    -2.4210    -1.5020 ha         1 F5N       0.112000
     30 H17         -6.8440    -1.5750    -0.1150 ha         1 F5N       0.114000
     31 H18         -6.4680     0.4000     1.3470 ha         1 F5N       0.112000
     32 H19         -4.2780     1.4920     1.4080 ha         1 F5N       0.126500
@<TRIPOS>BOND
     1     1     2 2   
     2     2     3 1   
     3     2    13 1   
     4     3     4 1   
     5     3    20 1   
     6     3    21 1   
     7     4     5 2   
     8     4    12 1   
     9     5     6 1   
    10     5    22 1   
    11     6     7 1   
    12     6    11 1   
    13     7     8 2   
    14     7    23 1   
    15     8     9 1   
    16     8    24 1   
    17     9    10 2   
    18     9    25 1   
    19    10    11 1   
    20    10    26 1   
    21    11    12 2   
    22    13    14 1   
    23    13    27 1   
    24    14    15 ar  
    25    14    19 ar  
    26    15    16 ar  
    27    15    28 1   
    28    16    17 ar  
    29    16    29 1   
    30    17    18 ar  
    31    17    30 1   
    32    18    19 ar  
    33    18    31 1   
    34    19    32 1   
@<TRIPOS>SUBSTRUCTURE
     1 F5N         1 TEMP              0 ****  ****    0 ROOT
