@<TRIPOS>MOLECULE
F5N
   32    34     1     0     0
SMALL
No Charge or Current Charge


@<TRIPOS>ATOM
      1 O1          -1.0810     0.5780    -2.2690 o          1 F5N      -0.568100
      2 C2          -1.0060     1.0830    -1.1540 c          1 F5N       0.616100
      3 C3           0.1510     2.0100    -0.7730 c3         1 F5N      -0.081200
      4 C4           1.4030     1.2500    -0.4410 cc         1 F5N       0.074400
      5 C5           2.5370     1.1280    -1.2120 cd         1 F5N      -0.264100
      6 N6           3.3780     0.3360    -0.4610 na         1 F5N       0.134100
      7 C7           4.6580    -0.0660    -0.8370 cc         1 F5N      -0.108000
      8 C8           5.2880    -0.8650     0.1140 cd         1 F5N      -0.142000
      9 C9           4.6510    -1.2260     1.3590 cd         1 F5N      -0.106000
     10 C10          3.3790    -0.7610     1.6100 cc         1 F5N      -0.070000
     11 C11          2.7110     0.0300     0.7080 cd         1 F5N      -0.073000
     12 N12          1.5110     0.5730     0.7460 nc         1 F5N      -0.285600
     13 N13         -1.9240     0.8690    -0.1320 ns         1 F5N      -0.149000
     14 C14         -3.1210     0.1030    -0.0600 ca         1 F5N      -0.015000
     15 C15         -3.6800    -0.5820    -1.1630 ca         1 F5N      -0.151000
     16 C16         -4.8690    -1.3170    -1.0150 ca         1 F5N      -0.083500
     17 C17         -5.5120    -1.3760     0.2320 ca         1 F5N      -0.139000
     18 C18         -4.9670    -0.6960     1.3320 ca         1 F5N      -0.083500
     19 C19         -3.7780     0.0390     1.1840 ca         1 F5N      -0.151000
     20 H3           0.3550     2.6760    -1.6190 hc         1 F5N       0.068200
     21 H3A         -0.1280     2.6090     0.1020 hc         1 F5N       0.068200
     22 H5           2.7920     1.5240    -2.1880 h4         1 F5N       0.232000
     23 H7           5.0550     0.2530    -1.7920 h4         1 F5N       0.143000
     24 H8           6.2910    -1.2290    -0.0880 ha         1 F5N       0.130000
     25 H9           5.1640    -1.8500     2.0840 ha         1 F5N       0.124000
     26 H10          2.8920    -1.0270     2.5430 ha         1 F5N       0.143000
     27 HN13        -1.6970     1.3460     0.7310 hn         1 F5N       0.148000
     28 H15         -3.2140    -0.5560    -2.1430 ha         1 F5N       0.126500
     29 H16         -5.2930    -1.8420    -1.8690 ha         1 F5N       0.112000
     30 H17         -6.4320    -1.9450     0.3440 ha         1 F5N       0.114000
     31 H18         -5.4640    -0.7390     2.2990 ha         1 F5N       0.112000
     32 H19         -3.3650     0.5610     2.0450 ha         1 F5N       0.126500
@<TRIPOS>BOND
     1     1     2 2   
     2     2     3 1   
     3     2    13 1   
     4     3     4 1   
     5     3    20 1   
     6     3    21 1   
     7     4     5 2   
     8     4    12 1   
     9     5     6 1   
    10     5    22 1   
    11     6     7 1   
    12     6    11 1   
    13     7     8 2   
    14     7    23 1   
    15     8     9 1   
    16     8    24 1   
    17     9    10 2   
    18     9    25 1   
    19    10    11 1   
    20    10    26 1   
    21    11    12 2   
    22    13    14 1   
    23    13    27 1   
    24    14    15 ar  
    25    14    19 ar  
    26    15    16 ar  
    27    15    28 1   
    28    16    17 ar  
    29    16    29 1   
    30    17    18 ar  
    31    17    30 1   
    32    18    19 ar  
    33    18    31 1   
    34    19    32 1   
@<TRIPOS>SUBSTRUCTURE
     1 F5N         1 TEMP              0 ****  ****    0 ROOT
