@<TRIPOS>MOLECULE
F5O
   74    77     1     0     0
SMALL
No Charge or Current Charge


@<TRIPOS>ATOM
      1 CAA        -23.3000    23.0600   -13.1290 c          1 F5O       0.715000
      2 CAB        -22.0110    22.3340   -12.7080 c3         1 F5O      -0.214400
      3 CAC        -22.0430    20.8270   -13.0930 c3         1 F5O      -0.063400
      4 CAD        -22.9750    19.9430   -12.2270 c3         1 F5O       0.180800
      5 CAH        -25.3960    19.5540   -11.6560 c3         1 F5O       0.224800
      6 CAI        -25.3710    20.0720   -10.1900 c3         1 F5O       0.053000
      7 CAJ        -26.7880    19.6840   -12.2830 ca         1 F5O      -0.053300
      8 CAK        -27.3290    20.9480   -12.6030 ca         1 F5O      -0.090000
      9 CAL        -28.6130    21.0510   -13.1670 ca         1 F5O      -0.126000
     10 CAM        -29.3660    19.8940   -13.4170 ca         1 F5O      -0.133000
     11 CAN        -28.8400    18.6330   -13.0940 ca         1 F5O      -0.126000
     12 CAO        -27.5570    18.5280   -12.5290 ca         1 F5O      -0.090000
     13 CAP        -27.5840    20.0720    -9.0440 c          1 F5O       0.609000
     14 CAR        -28.3040    18.1480    -7.6850 cc         1 F5O       0.141400
     15 CAS        -27.1000    17.5050    -7.9410 cd         1 F5O      -0.241400
     16 CAT        -26.0480    18.1720    -8.7540 c          1 F5O       0.589200
     17 CAX        -29.4180    17.4750    -6.8950 c3         1 F5O      -0.073900
     18 CAZ        -30.7380    20.3950    -9.1740 ca         1 F5O      -0.075300
     19 CBA        -30.9520    19.3360   -10.0970 ca         1 F5O       0.181000
     20 CBB        -31.8030    19.4920   -11.1980 ca         1 F5O      -0.115000
     21 CBC        -32.4560    20.7090   -11.4120 ca         1 F5O      -0.090000
     22 CBD        -32.2720    21.7660   -10.5120 ca         1 F5O      -0.083000
     23 CBE        -31.4310    21.6310    -9.3790 ca         1 F5O      -0.152300
     24 CBF        -31.2960    22.8260    -8.4080 c3         1 F5O       0.352300
     25 CBK        -26.7290    16.2320    -7.2720 ca         1 F5O      -0.015800
     26 CBL        -26.2540    15.1190    -8.0090 ca         1 F5O       0.164000
     27 CBM        -25.8860    13.9200    -7.3580 ca         1 F5O       0.095100
     28 CBN        -25.9870    13.8340    -5.9520 ca         1 F5O      -0.179000
     29 CBO        -26.4580    14.9330    -5.2150 ca         1 F5O      -0.097000
     30 CBP        -26.8260    16.1190    -5.8690 ca         1 F5O      -0.107000
     31 CBR        -25.0530    11.5970    -7.5490 c3         1 F5O       0.150900
     32 FBG        -30.0590    23.3700    -8.4490 f          1 F5O      -0.111000
     33 FBH        -32.1600    23.8320    -8.6780 f          1 F5O      -0.111000
     34 FBI        -31.5350    22.4670    -7.1250 f          1 F5O      -0.111000
     35 FBJ        -30.3550    18.1340    -9.9390 f          1 F5O      -0.169000
     36 FBS        -26.2170    15.1710    -9.3640 f          1 F5O      -0.158000
     37 NAG        -24.3900    20.2420   -12.4970 n7         1 F5O      -0.904400
     38 NAQ        -28.5350    19.4260    -8.2290 n          1 F5O      -0.314000
     39 NAU        -26.3870    19.4050    -9.3120 n          1 F5O      -0.346400
     40 OAE        -23.3440    23.5620   -14.2410 o          1 F5O      -0.736500
     41 OAF        -24.2440    23.0430   -12.3520 o          1 F5O      -0.736500
     42 OBQ        -25.4440    12.8560    -8.1270 os         1 F5O      -0.324100
     43 H1         -21.1540    22.7570   -13.2460 hc         1 F5O       0.021700
     44 H2         -21.8950    22.3610   -11.6180 hc         1 F5O       0.021700
     45 H3         -22.3040    20.7180   -14.1530 hc         1 F5O       0.025200
     46 H4         -21.0250    20.4320   -12.9870 hc         1 F5O       0.025200
     47 H5         -22.7710    18.8870   -12.4480 h1         1 F5O       0.009700
     48 H6         -22.7300    20.1140   -11.1710 h1         1 F5O       0.009700
     49 H7         -25.1520    18.4820   -11.6250 h1         1 F5O       0.058700
     50 H8         -24.3730    19.9140    -9.7640 h1         1 F5O       0.092200
     51 H9         -25.5220    21.1580   -10.1970 h1         1 F5O       0.092200
     52 H10        -26.7590    21.8530   -12.4090 ha         1 F5O       0.130000
     53 H11        -29.0230    22.0290   -13.4080 ha         1 F5O       0.097000
     54 H12        -30.3590    19.9740   -13.8550 ha         1 F5O       0.088000
     55 H13        -29.4260    17.7350   -13.2810 ha         1 F5O       0.097000
     56 H14        -27.1620    17.5450   -12.2810 ha         1 F5O       0.130000
     57 H15        -29.2850    16.3900    -6.8250 hc         1 F5O       0.059367
     58 H16        -29.4730    17.8750    -5.8760 hc         1 F5O       0.059367
     59 H17        -30.3970    17.6050    -7.3680 hc         1 F5O       0.059367
     60 H18        -29.4690    21.1640    -7.5790 h1         1 F5O       0.077200
     61 H19        -30.3710    19.7550    -7.1460 h1         1 F5O       0.077200
     62 H20        -31.9480    18.6660   -11.8890 ha         1 F5O       0.137000
     63 H21        -33.1100    20.8330   -12.2730 ha         1 F5O       0.121000
     64 H22        -32.8020    22.6970   -10.7070 ha         1 F5O       0.133000
     65 H23        -25.7120    12.9300    -5.4170 ha         1 F5O       0.112000
     66 H24        -26.5330    14.8670    -4.1320 ha         1 F5O       0.111000
     67 H25        -27.1650    16.9660    -5.2760 ha         1 F5O       0.122000
     68 H26        -24.7370    10.9000    -8.3360 h1         1 F5O       0.038367
     69 H27        -24.2120    11.7310    -6.8570 h1         1 F5O       0.038367
     70 H28        -25.8890    11.1410    -7.0060 h1         1 F5O       0.038367
     71 H29        -24.5180    21.2670   -12.3860 hn         1 F5O       0.499000
     72 OAV        -24.9370    17.6840    -8.9190 o          1 F5O      -0.523000
     73 CAY        -29.7930    20.1920    -7.9660 c3         1 F5O       0.154300
     74 OAW        -27.7920    21.1930    -9.4860 o          1 F5O      -0.520000
@<TRIPOS>BOND
     1     1     2 1   
     2     1    40 1   
     3     1    41 1   
     4     2     3 1   
     5     2    43 1   
     6     2    44 1   
     7     3     4 1   
     8     3    45 1   
     9     3    46 1   
    10     4    37 1   
    11     4    47 1   
    12     4    48 1   
    13     5     6 1   
    14     5     7 1   
    15     5    37 1   
    16     5    49 1   
    17     6    39 1   
    18     6    50 1   
    19     6    51 1   
    20     7     8 ar  
    21     7    12 ar  
    22     8     9 ar  
    23     8    52 1   
    24     9    10 ar  
    25     9    53 1   
    26    10    11 ar  
    27    10    54 1   
    28    11    12 ar  
    29    11    55 1   
    30    12    56 1   
    31    13    38 1   
    32    13    39 1   
    33    13    74 2   
    34    14    15 2   
    35    14    17 1   
    36    14    38 1   
    37    15    16 1   
    38    15    25 1   
    39    16    39 1   
    40    16    72 2   
    41    17    57 1   
    42    17    58 1   
    43    17    59 1   
    44    18    19 ar  
    45    18    23 ar  
    46    18    73 1   
    47    19    20 ar  
    48    19    35 1   
    49    20    21 ar  
    50    20    62 1   
    51    21    22 ar  
    52    21    63 1   
    53    22    23 ar  
    54    22    64 1   
    55    23    24 1   
    56    24    32 1   
    57    24    33 1   
    58    24    34 1   
    59    25    26 ar  
    60    25    30 ar  
    61    26    27 ar  
    62    26    36 1   
    63    27    28 ar  
    64    27    42 1   
    65    28    29 ar  
    66    28    65 1   
    67    29    30 ar  
    68    29    66 1   
    69    30    67 1   
    70    31    42 1   
    71    31    68 1   
    72    31    69 1   
    73    31    70 1   
    74    37    71 1   
    75    38    73 1   
    76    60    73 1   
    77    61    73 1   
@<TRIPOS>SUBSTRUCTURE
     1 F5O         1 TEMP              0 ****  ****    0 ROOT
