@<TRIPOS>MOLECULE
F5O
   74    77     1     0     0
SMALL
abcg2


@<TRIPOS>ATOM
      1 CAA        -23.0330    23.1110   -11.9020 c          1 F5O       0.715000
      2 CAB        -21.9950    21.9700   -11.8680 c3         1 F5O      -0.214400
      3 CAC        -22.1100    20.8290   -12.8810 c3         1 F5O      -0.063400
      4 CAD        -23.1050    19.7270   -12.5270 c3         1 F5O       0.180800
      5 CAH        -25.4500    19.4950   -11.8910 c3         1 F5O       0.224800
      6 CAI        -25.4790    20.2120   -10.5250 c3         1 F5O       0.053000
      7 CAJ        -26.8310    19.4430   -12.5010 ca         1 F5O      -0.053300
      8 CAK        -27.3040    20.4600   -13.3280 ca         1 F5O      -0.090000
      9 CAL        -28.5880    20.4080   -13.8520 ca         1 F5O      -0.126000
     10 CAM        -29.4210    19.3340   -13.5640 ca         1 F5O      -0.133000
     11 CAN        -28.9570    18.3120   -12.7480 ca         1 F5O      -0.126000
     12 CAO        -27.6740    18.3710   -12.2190 ca         1 F5O      -0.090000
     13 CAP        -27.5690    20.2500    -9.2740 c          1 F5O       0.609000
     14 CAR        -28.0430    18.5120    -7.6550 cc         1 F5O       0.141400
     15 CAS        -26.8810    17.8840    -7.9520 cd         1 F5O      -0.241400
     16 CAT        -25.9670    18.4430    -8.9220 c          1 F5O       0.589200
     17 CAX        -28.9820    17.9900    -6.6180 c3         1 F5O      -0.073900
     18 CAZ        -30.6420    20.3600    -9.1170 ca         1 F5O      -0.075300
     19 CBA        -30.8480    19.2090    -9.8630 ca         1 F5O       0.181000
     20 CBB        -31.7940    19.0970   -10.8630 ca         1 F5O      -0.115000
     21 CBC        -32.6020    20.1800   -11.1370 ca         1 F5O      -0.090000
     22 CBD        -32.4660    21.3430   -10.3960 ca         1 F5O      -0.083000
     23 CBE        -31.5090    21.4310    -9.3940 ca         1 F5O      -0.152300
     24 CBF        -31.4430    22.7060    -8.6000 c3         1 F5O       0.352300
     25 CBK        -26.4680    16.6120    -7.3230 ca         1 F5O      -0.015800
     26 CBL        -26.6160    15.4340    -8.0250 ca         1 F5O       0.164000
     27 CBM        -26.2520    14.1910    -7.5060 ca         1 F5O       0.095100
     28 CBN        -25.7060    14.1550    -6.2270 ca         1 F5O      -0.179000
     29 CBO        -25.5410    15.3340    -5.5070 ca         1 F5O      -0.097000
     30 CBP        -25.9150    16.5530    -6.0430 ca         1 F5O      -0.107000
     31 CBR        -26.1190    11.8490    -7.8100 c3         1 F5O       0.150900
     32 FBG        -30.3360    23.4150    -8.8590 f          1 F5O      -0.111000
     33 FBH        -32.4780    23.5090    -8.8500 f          1 F5O      -0.111000
     34 FBI        -31.4580    22.4710    -7.2780 f          1 F5O      -0.111000
     35 FBJ        -30.1010    18.1220    -9.6110 f          1 F5O      -0.169000
     36 FBS        -27.1390    15.4690    -9.2600 f          1 F5O      -0.158000
     37 NAG        -24.4830    20.1300   -12.7580 n7         1 F5O      -0.904400
     38 NAQ        -28.3720    19.6780    -8.3040 n          1 F5O      -0.314000
     39 NAU        -26.3780    19.6160    -9.5400 n          1 F5O      -0.346400
     40 OAE        -22.7520    24.1190   -11.2290 o          1 F5O      -0.736500
     41 OAF        -24.0760    22.9530   -12.5820 o          1 F5O      -0.736500
     42 OBQ        -26.4680    13.1300    -8.2970 os         1 F5O      -0.324100
     43 H1         -21.0090    22.4320   -11.9700 hc         1 F5O       0.021700
     44 H2         -22.0000    21.5490   -10.8550 hc         1 F5O       0.021700
     45 H3         -22.3360    21.2190   -13.8770 hc         1 F5O       0.025200
     46 H4         -21.1290    20.3540   -12.9620 hc         1 F5O       0.025200
     47 H5         -22.8810    18.8390   -13.1290 h1         1 F5O       0.009700
     48 H6         -22.9190    19.4290   -11.4830 h1         1 F5O       0.009700
     49 H7         -25.1260    18.4630   -11.7320 h1         1 F5O       0.058700
     50 H8         -24.4740    20.2200   -10.1040 h1         1 F5O       0.092200
     51 H9         -25.7780    21.2470   -10.6740 h1         1 F5O       0.092200
     52 H10        -26.6690    21.3030   -13.5700 ha         1 F5O       0.130000
     53 H11        -28.9390    21.2090   -14.4920 ha         1 F5O       0.097000
     54 H12        -30.4210    19.2920   -13.9760 ha         1 F5O       0.088000
     55 H13        -29.5910    17.4640   -12.5270 ha         1 F5O       0.097000
     56 H14        -27.3210    17.5590   -11.5930 ha         1 F5O       0.130000
     57 H15        -28.6480    17.0230    -6.2550 hc         1 F5O       0.059367
     58 H16        -29.0260    18.6650    -5.7620 hc         1 F5O       0.059367
     59 H17        -29.9950    17.8700    -7.0000 hc         1 F5O       0.059367
     60 H18        -29.3080    21.4370    -7.8040 h1         1 F5O       0.077200
     61 H19        -30.0300    20.0270    -7.0990 h1         1 F5O       0.077200
     62 H20        -31.8890    18.1670   -11.4090 ha         1 F5O       0.137000
     63 H21        -33.3480    20.1190   -11.9180 ha         1 F5O       0.121000
     64 H22        -33.1210    22.1750   -10.6090 ha         1 F5O       0.133000
     65 H23        -25.4080    13.2160    -5.7800 ha         1 F5O       0.112000
     66 H24        -25.1150    15.2880    -4.5140 ha         1 F5O       0.111000
     67 H25        -25.7880    17.4680    -5.4800 ha         1 F5O       0.122000
     68 H26        -26.3710    11.1430    -8.5960 h1         1 F5O       0.038367
     69 H27        -25.0500    11.7720    -7.5940 h1         1 F5O       0.038367
     70 H28        -26.6810    11.5890    -6.9090 h1         1 F5O       0.038367
     71 H29        -24.5320    21.1480   -12.6920 hn         1 F5O       0.499000
     72 OAV        -24.8900    17.9440    -9.1960 o          1 F5O      -0.523000
     73 CAY        -29.5980    20.4140    -8.0180 c3         1 F5O       0.154300
     74 OAW        -27.9110    21.2710    -9.8330 o          1 F5O      -0.520000
@<TRIPOS>BOND
     1     1     2 1   
     2     1    40 1   
     3     1    41 1   
     4     2     3 1   
     5     2    43 1   
     6     2    44 1   
     7     3     4 1   
     8     3    45 1   
     9     3    46 1   
    10     4    37 1   
    11     4    47 1   
    12     4    48 1   
    13     5     6 1   
    14     5     7 1   
    15     5    37 1   
    16     5    49 1   
    17     6    39 1   
    18     6    50 1   
    19     6    51 1   
    20     7     8 ar  
    21     7    12 ar  
    22     8     9 ar  
    23     8    52 1   
    24     9    10 ar  
    25     9    53 1   
    26    10    11 ar  
    27    10    54 1   
    28    11    12 ar  
    29    11    55 1   
    30    12    56 1   
    31    13    38 1   
    32    13    39 1   
    33    13    74 2   
    34    14    15 2   
    35    14    17 1   
    36    14    38 1   
    37    15    16 1   
    38    15    25 1   
    39    16    39 1   
    40    16    72 2   
    41    17    57 1   
    42    17    58 1   
    43    17    59 1   
    44    18    19 ar  
    45    18    23 ar  
    46    18    73 1   
    47    19    20 ar  
    48    19    35 1   
    49    20    21 ar  
    50    20    62 1   
    51    21    22 ar  
    52    21    63 1   
    53    22    23 ar  
    54    22    64 1   
    55    23    24 1   
    56    24    32 1   
    57    24    33 1   
    58    24    34 1   
    59    25    26 ar  
    60    25    30 ar  
    61    26    27 ar  
    62    26    36 1   
    63    27    28 ar  
    64    27    42 1   
    65    28    29 ar  
    66    28    65 1   
    67    29    30 ar  
    68    29    66 1   
    69    30    67 1   
    70    31    42 1   
    71    31    68 1   
    72    31    69 1   
    73    31    70 1   
    74    37    71 1   
    75    38    73 1   
    76    60    73 1   
    77    61    73 1   
@<TRIPOS>SUBSTRUCTURE
     1 F5O         1 TEMP              0 ****  ****    0 ROOT
