@<TRIPOS>MOLECULE
F5P
   64    66     1     0     0
SMALL
abcg2


@<TRIPOS>ATOM
      1 C13          2.9750     2.8230     0.2330 c3         1 F5P       0.217600
      2 C15          5.1480     1.9200     1.0980 c5         1 F5P       0.095300
      3 C17          4.2210    -0.2300     0.7920 c5         1 F5P       0.348700
      4 C21          2.6340    -3.0160    -2.0250 c          1 F5P       0.593200
      5 C22          2.1970    -1.6490    -1.9730 cc         1 F5P      -0.378200
      6 C02         -5.5320    -2.1530     0.3430 c6         1 F5P       0.079500
      7 C03         -4.1230    -2.5140    -0.1440 c6         1 F5P       0.189300
      8 C04         -3.6360    -3.8480     0.3860 c3         1 F5P      -0.089100
      9 C06         -3.4590    -0.2540    -0.2490 c6         1 F5P       0.441300
     10 C14          3.6400     1.9660     1.2990 c5         1 F5P       0.157300
     11 C16          5.2790     0.6930     0.1890 c5         1 F5P       0.062300
     12 C19          4.1440    -2.4940    -0.1270 c          1 F5P       0.621000
     13 C23          2.7220    -0.8140    -1.0600 cd         1 F5P       0.049600
     14 C32         -4.7740     0.2690     0.3150 c6         1 F5P       0.072700
     15 C35         -4.8700     1.5190     3.8890 c3         1 F5P      -0.177100
     16 C37         -5.8940    -0.7110    -0.0480 c6         1 F5P       0.159300
     17 N01         -6.5190    -3.0180    -0.2880 n8         1 F5P      -1.022200
     18 N18          3.6730    -1.1970    -0.1580 n          1 F5P      -0.306000
     19 N20          3.5950    -3.3210    -1.0690 ns         1 F5P      -0.475500
     20 N33         -4.6780     0.4360     1.7450 ns         1 F5P      -0.469900
     21 O05         -3.2010    -1.5300     0.2900 os         1 F5P      -0.486000
     22 O07         -2.4300     0.5820     0.1250 os         1 F5P      -0.545400
     23 O09         -0.0210    -0.2620     0.4270 o          1 F5P      -0.838000
     24 O10         -0.6410     2.0140    -0.5870 os         1 F5P      -0.687800
     25 O12          1.5770     2.6760     0.2980 os         1 F5P      -0.571400
     26 O26          3.1990     0.6070     1.2360 os         1 F5P      -0.385000
     27 O27          6.5320     0.0770     0.2080 oh         1 F5P      -0.704000
     28 O28          5.7720     1.6970     2.3360 oh         1 F5P      -0.715000
     29 O29          0.3410     4.1840    -1.3670 o          1 F5P      -0.855500
     30 O30          1.4090     1.9480    -2.1560 o          1 F5P      -0.855500
     31 O31         -1.1000    -0.1350    -1.9530 o          1 F5P      -0.838000
     32 O36         -5.7690     2.4110     1.8620 o          1 F5P      -0.635100
     33 O38         -6.1220    -0.6370    -1.4330 oh         1 F5P      -0.656000
     34 P08         -0.9240     0.3870    -0.5640 p5         1 F5P       1.460800
     35 P11          0.7150     2.7600    -1.1040 p5         1 F5P       1.460800
     36 H132         3.2680     3.8640     0.4150 h1         1 F5P       0.011200
     37 H131         3.3550     2.5530    -0.7580 h1         1 F5P       0.011200
     38 H151         5.5240     2.8310     0.6130 h1         1 F5P       0.042700
     39 H171         4.6490    -0.8090     1.6140 h2         1 F5P       0.094700
     40 H221         1.4120    -1.2960    -2.6240 ha         1 F5P       0.271000
     41 H021        -5.5380    -2.2240     1.4410 h1         1 F5P       0.028700
     42 H031        -4.1310    -2.5530    -1.2440 h1         1 F5P       0.058700
     43 H042        -2.6090    -4.0300     0.0710 hc         1 F5P       0.035033
     44 H041        -3.6740    -3.8800     1.4760 hc         1 F5P       0.035033
     45 H061        -3.5440    -0.3280    -1.3420 h2         1 F5P       0.068700
     46 H141         3.3850     2.3550     2.2890 h1         1 F5P       0.088700
     47 H161         4.9820     0.9670    -0.8320 h1         1 F5P       0.073700
     48 H231         2.3820     0.2090    -1.0110 h4         1 F5P       0.278000
     49 H321        -5.0010     1.2400    -0.1290 h1         1 F5P       0.112700
     50 H352        -4.4810     0.5760     4.2690 hc         1 F5P       0.048367
     51 H353        -4.1360     2.2990     4.1020 hc         1 F5P       0.048367
     52 H351        -5.7770     1.7700     4.4360 hc         1 F5P       0.048367
     53 H371        -6.7980    -0.4180     0.5090 h1         1 F5P       0.019700
     54 H1          -6.2620    -3.9930    -0.2030 hn         1 F5P       0.391000
     55 H012        -7.4100    -2.9260     0.1850 hn         1 F5P       0.391000
     56 H201         3.9380    -4.2730    -1.0560 hn         1 F5P       0.308500
     57 H331        -4.1640    -0.2580     2.2640 hn         1 F5P       0.322500
     58 H271         7.1120     0.5360    -0.4080 ho         1 F5P       0.493000
     59 H281         6.6520     1.3420     2.1640 ho         1 F5P       0.500000
     60 H381        -6.4690    -1.5140    -1.6700 ho         1 F5P       0.458000
     61 O24          2.2460    -3.8740    -2.7990 o          1 F5P      -0.586000
     62 C34         -5.1570     1.5030     2.4090 c          1 F5P       0.606100
     63 O25          4.9790    -2.8850     0.6640 o          1 F5P      -0.614000
     64 H043        -4.2370    -4.6720     0.0020 hc         1 F5P       0.035033
@<TRIPOS>BOND
     1     1    10 1   
     2     1    25 1   
     3     1    36 1   
     4     1    37 1   
     5     2    10 1   
     6     2    11 1   
     7     2    28 1   
     8     2    38 1   
     9     3    11 1   
    10     3    18 1   
    11     3    26 1   
    12     3    39 1   
    13     4     5 1   
    14     4    19 1   
    15     4    61 2   
    16     5    13 2   
    17     5    40 1   
    18     6     7 1   
    19     6    16 1   
    20     6    17 1   
    21     6    41 1   
    22     7     8 1   
    23     7    21 1   
    24     7    42 1   
    25     8    43 1   
    26     8    44 1   
    27     8    64 1   
    28     9    14 1   
    29     9    21 1   
    30     9    22 1   
    31     9    45 1   
    32    10    26 1   
    33    10    46 1   
    34    11    27 1   
    35    11    47 1   
    36    12    18 1   
    37    12    19 1   
    38    12    63 2   
    39    13    18 1   
    40    13    48 1   
    41    14    16 1   
    42    14    20 1   
    43    14    49 1   
    44    15    50 1   
    45    15    51 1   
    46    15    52 1   
    47    15    62 1   
    48    16    33 1   
    49    16    53 1   
    50    17    54 1   
    51    17    55 1   
    52    19    56 1   
    53    20    57 1   
    54    20    62 1   
    55    22    34 1   
    56    23    34 1   
    57    24    34 1   
    58    24    35 1   
    59    25    35 1   
    60    27    58 1   
    61    28    59 1   
    62    29    35 1   
    63    30    35 1   
    64    31    34 1   
    65    32    62 2   
    66    33    60 1   
@<TRIPOS>SUBSTRUCTURE
     1 F5P         1 TEMP              0 ****  ****    0 ROOT
