@<TRIPOS>MOLECULE
F5P
   64    66     1     0     0
SMALL
No Charge or Current Charge


@<TRIPOS>ATOM
      1 C13          1.6310     3.2800    -0.4080 c3         1 F5P       0.217600
      2 C15          3.4390     2.4170     1.2710 c5         1 F5P       0.095300
      3 C17          2.5150     0.2510     1.2190 c5         1 F5P       0.348700
      4 C21          2.3350    -3.6150    -0.6800 c          1 F5P       0.593200
      5 C22          2.0260    -2.3920    -1.4070 cc         1 F5P      -0.378200
      6 C02         -4.6140    -1.8410     0.7660 c6         1 F5P       0.079500
      7 C03         -3.9120    -2.7980    -0.2630 c6         1 F5P       0.189300
      8 C04         -3.7720    -4.2510     0.2600 c3         1 F5P      -0.089100
      9 C06         -2.5570    -1.0300    -1.1750 c6         1 F5P       0.441300
     10 C14          1.9090     2.4930     0.9030 c5         1 F5P       0.157300
     11 C16          3.8160     0.9920     0.7730 c5         1 F5P       0.062300
     12 C19          2.7560    -2.2200     1.2820 c          1 F5P       0.621000
     13 C23          2.0850    -1.1540    -0.8080 cd         1 F5P       0.049600
     14 C32         -3.0260     0.0220    -0.1170 c6         1 F5P       0.072700
     15 C35         -1.0550     0.7950     3.1270 c3         1 F5P      -0.177100
     16 C37         -4.4750    -0.3520     0.3220 c6         1 F5P       0.159300
     17 N01         -6.0700    -2.1660     0.9150 n8         1 F5P      -1.022200
     18 N18          2.4600    -1.0650     0.5340 n          1 F5P      -0.306000
     19 N20          2.6760    -3.4040     0.6160 ns         1 F5P      -0.475500
     20 N33         -2.1170     0.0470     1.0560 ns         1 F5P      -0.469900
     21 O05         -2.5820    -2.3360    -0.5650 os         1 F5P      -0.486000
     22 O07         -1.2320    -0.8300    -1.6620 os         1 F5P      -0.545400
     23 O09          0.2760     0.2020    -3.3880 o          1 F5P      -0.838000
     24 O10         -0.6110     1.4490    -1.3610 os         1 F5P      -0.687800
     25 O12          0.2220     3.5310    -0.5300 os         1 F5P      -0.571400
     26 O26          1.4680     1.1160     0.7570 os         1 F5P      -0.385000
     27 O27          5.0380     0.5300     1.3930 oh         1 F5P      -0.704000
     28 O28          3.6820     2.4990     2.6790 oh         1 F5P      -0.715000
     29 O29         -1.9710     3.5550    -1.7900 o          1 F5P      -0.855500
     30 O30          0.1430     3.2680    -3.0530 o          1 F5P      -0.855500
     31 O31         -2.1310     0.8250    -3.3590 o          1 F5P      -0.838000
     32 O36         -2.7630     2.0350     1.9600 o          1 F5P      -0.635100
     33 O38         -5.4350    -0.1510    -0.7130 oh         1 F5P      -0.656000
     34 P08         -0.9290     0.4730    -2.5500 p5         1 F5P       1.460800
     35 P11         -0.6010     2.9620    -1.7950 p5         1 F5P       1.460800
     36 H132         2.1700     4.2350    -0.3700 h1         1 F5P       0.011200
     37 H131         2.0240     2.7080    -1.2600 h1         1 F5P       0.011200
     38 H151         4.0220     3.1860     0.7440 h1         1 F5P       0.042700
     39 H171         2.4570     0.1150     2.3070 h2         1 F5P       0.094700
     40 H221         1.7350    -2.5190    -2.4440 ha         1 F5P       0.271000
     41 H021        -4.1390    -1.9710     1.7500 h1         1 F5P       0.028700
     42 H031        -4.4920    -2.8240    -1.1980 h1         1 F5P       0.058700
     43 H042        -3.2450    -4.8790    -0.4680 hc         1 F5P       0.035033
     44 H041        -3.2120    -4.2820     1.2020 hc         1 F5P       0.035033
     45 H061        -3.2550    -1.0220    -2.0280 h2         1 F5P       0.068700
     46 H141         1.3430     2.9660     1.7170 h1         1 F5P       0.088700
     47 H161         3.9110     0.9860    -0.3240 h1         1 F5P       0.073700
     48 H231         1.8530    -0.2080    -1.2980 h4         1 F5P       0.278000
     49 H321        -3.0510     1.0220    -0.5710 h1         1 F5P       0.112700
     50 H352        -1.4250    -0.0380     3.7350 hc         1 F5P       0.048367
     51 H353        -0.1190     0.3950     2.7250 hc         1 F5P       0.048367
     52 H351        -0.8980     1.6820     3.7520 hc         1 F5P       0.048367
     53 H371        -4.7520     0.2820     1.1770 h1         1 F5P       0.019700
     54 H1          -6.1680    -3.1630     1.1480 hn         1 F5P       0.391000
     55 H012        -6.4320    -1.6980     1.7570 hn         1 F5P       0.391000
     56 H201         2.8920    -4.2270     1.1560 hn         1 F5P       0.308500
     57 H331        -1.4630    -0.7200     1.1590 hn         1 F5P       0.322500
     58 H271         5.2890    -0.3220     0.9640 ho         1 F5P       0.493000
     59 H281         4.4520     1.8890     2.8110 ho         1 F5P       0.500000
     60 H381        -6.1070    -0.8390    -0.4680 ho         1 F5P       0.458000
     61 O24          2.2970    -4.7300    -1.1690 o          1 F5P      -0.586000
     62 C34         -2.0530     1.0410     2.0010 c          1 F5P       0.606100
     63 O25          3.0720    -2.1950     2.4590 o          1 F5P      -0.614000
     64 H043        -4.7530    -4.7060     0.4370 hc         1 F5P       0.035033
@<TRIPOS>BOND
     1     1    10 1   
     2     1    25 1   
     3     1    36 1   
     4     1    37 1   
     5     2    10 1   
     6     2    11 1   
     7     2    28 1   
     8     2    38 1   
     9     3    11 1   
    10     3    18 1   
    11     3    26 1   
    12     3    39 1   
    13     4     5 1   
    14     4    19 1   
    15     4    61 2   
    16     5    13 2   
    17     5    40 1   
    18     6     7 1   
    19     6    16 1   
    20     6    17 1   
    21     6    41 1   
    22     7     8 1   
    23     7    21 1   
    24     7    42 1   
    25     8    43 1   
    26     8    44 1   
    27     8    64 1   
    28     9    14 1   
    29     9    21 1   
    30     9    22 1   
    31     9    45 1   
    32    10    26 1   
    33    10    46 1   
    34    11    27 1   
    35    11    47 1   
    36    12    18 1   
    37    12    19 1   
    38    12    63 2   
    39    13    18 1   
    40    13    48 1   
    41    14    16 1   
    42    14    20 1   
    43    14    49 1   
    44    15    50 1   
    45    15    51 1   
    46    15    52 1   
    47    15    62 1   
    48    16    33 1   
    49    16    53 1   
    50    17    54 1   
    51    17    55 1   
    52    19    56 1   
    53    20    57 1   
    54    20    62 1   
    55    22    34 1   
    56    23    34 1   
    57    24    34 1   
    58    24    35 1   
    59    25    35 1   
    60    27    58 1   
    61    28    59 1   
    62    29    35 1   
    63    30    35 1   
    64    31    34 1   
    65    32    62 2   
    66    33    60 1   
@<TRIPOS>SUBSTRUCTURE
     1 F5P         1 TEMP              0 ****  ****    0 ROOT
