@<TRIPOS>MOLECULE
F5Q
   74    78     1     0     0
SMALL
No Charge or Current Charge


@<TRIPOS>ATOM
      1 C4          -1.8990    -1.3550    -0.3360 ca         1 F5Q      -0.032000
      2 C14          0.7050     2.3770    -0.0290 ca         1 F5Q      -0.020300
      3 C5          -3.2450    -0.9110    -0.1660 ca         1 F5Q       0.104000
      4 C6          -3.9890    -1.3710     0.9760 ca         1 F5Q       0.418000
      5 C11         -2.0470     2.0590    -0.5560 ca         1 F5Q      -0.306500
      6 C7          -5.8280    -0.4090     2.4720 c5         1 F5Q       0.226800
      7 C8          -7.3630    -0.5640     2.3280 c5         1 F5Q      -0.095900
      8 C9          -7.5500    -0.3310     0.8070 c5         1 F5Q      -0.095900
      9 C10         -6.4360    -1.2360     0.2220 c5         1 F5Q       0.226800
     10 C12         -1.1700     2.4450    -1.5900 ca         1 F5Q      -0.009500
     11 C13          0.2000     2.6010    -1.3230 ca         1 F5Q      -0.131500
     12 N1          -5.3510    -1.0420     1.2170 nh         1 F5Q      -0.801400
     13 N2          -3.7910     0.0170    -1.0950 nu         1 F5Q      -0.880100
     14 C3          -1.2850    -2.2000     0.6320 ca         1 F5Q       0.218000
     15 N3           9.4360    -0.9370    -0.1760 n3         1 F5Q      -0.716600
     16 O2          -4.5940     1.9560     0.2710 o          1 F5Q      -0.539500
     17 S           -3.7680     1.6930    -0.9100 sy         1 F5Q       1.143600
     18 O1          -4.1230     2.1760    -2.2460 o          1 F5Q      -0.539500
     19 C27         -1.1160    -0.9570    -1.4500 ca         1 F5Q      -0.092000
     20 C28          0.2160    -1.3870    -1.5380 ca         1 F5Q      -0.141000
     21 C29          0.7350    -2.2090    -0.5310 ca         1 F5Q       0.322900
     22 N4           0.0020    -2.6150     0.5280 nb         1 F5Q      -0.642000
     23 C2          -2.0340    -2.6150     1.7420 ca         1 F5Q      -0.031000
     24 C1          -3.3650    -2.2140     1.9080 ca         1 F5Q      -0.175000
     25 C16         -1.5500     1.8610     0.7470 ca         1 F5Q      -0.009500
     26 C15         -0.1790     2.0180     1.0060 ca         1 F5Q      -0.131500
     27 C18          2.8850     1.0960     0.0580 c3         1 F5Q      -0.074400
     28 C19          4.4060     1.1310     0.3240 c3         1 F5Q      -0.075400
     29 C20          5.0790    -0.2490     0.1350 c3         1 F5Q      -0.070400
     30 C21          6.5980    -0.3060     0.4850 c6         1 F5Q      -0.059700
     31 C25          7.1350    -1.7600     0.4020 c6         1 F5Q      -0.072900
     32 C24          8.6490    -1.8240     0.7220 c6         1 F5Q       0.167800
     33 C23          8.9730     0.4740    -0.0830 c6         1 F5Q       0.167800
     34 C22          7.4680     0.6090    -0.4220 c6         1 F5Q      -0.072900
     35 H1          -5.5350     0.6490     2.5150 h1         1 F5Q       0.051700
     36 H2          -5.4570    -0.9110     3.3760 h1         1 F5Q       0.051700
     37 H3          -7.6900    -1.5680     2.6230 hc         1 F5Q       0.057450
     38 H4          -7.9130     0.1580     2.9410 hc         1 F5Q       0.057450
     39 H5          -8.5470    -0.6140     0.4500 hc         1 F5Q       0.057450
     40 H6          -7.3870     0.7190     0.5390 hc         1 F5Q       0.057450
     41 H7          -6.7520    -2.2880     0.1880 h1         1 F5Q       0.051700
     42 H8          -6.1640    -0.9250    -0.7950 h1         1 F5Q       0.051700
     43 H9          -1.5360     2.5920    -2.6050 ha         1 F5Q       0.136000
     44 H10          0.8750     2.8720    -2.1310 ha         1 F5Q       0.118000
     45 H11         -3.4590    -0.0850    -2.0430 hn         1 F5Q       0.488000
     46 H13         -1.5080    -0.3210    -2.2370 ha         1 F5Q       0.107000
     47 H14          0.8430    -1.0890    -2.3740 ha         1 F5Q       0.121000
     48 H15          1.7670    -2.5570    -0.5730 h4         1 F5Q       0.018100
     49 H16         -1.5750    -3.2640     2.4830 ha         1 F5Q       0.132000
     50 H17         -3.9230    -2.5730     2.7680 ha         1 F5Q       0.121000
     51 H18         -2.2150     1.5480     1.5510 ha         1 F5Q       0.136000
     52 H19          0.2010     1.8330     2.0080 ha         1 F5Q       0.118000
     53 H22          2.4170     0.3700     0.7350 hc         1 F5Q       0.041200
     54 H23          2.7060     0.7390    -0.9640 hc         1 F5Q       0.041200
     55 H24          4.8640     1.8610    -0.3540 hc         1 F5Q       0.039700
     56 H25          4.5850     1.4840     1.3470 hc         1 F5Q       0.039700
     57 H26          4.5430    -0.9740     0.7600 hc         1 F5Q       0.038700
     58 H27          4.9280    -0.5740    -0.9020 hc         1 F5Q       0.038700
     59 H28          6.6950     0.0380     1.5250 hc         1 F5Q       0.043700
     60 H29          6.5880    -2.4050     1.1030 hc         1 F5Q       0.045950
     61 H30          6.9590    -2.1690    -0.6020 hc         1 F5Q       0.045950
     62 H31          8.9860    -2.8660     0.6170 h1         1 F5Q       0.028950
     63 H32          8.8060    -1.5380     1.7730 h1         1 F5Q       0.028950
     64 H33         11.1660    -0.7490     1.0580 h1         1 F5Q       0.029367
     65 H34         11.2140    -2.1070    -0.0910 h1         1 F5Q       0.029367
     66 H35         11.4480    -0.4460    -0.6730 h1         1 F5Q       0.029367
     67 H36          9.1480     0.8650     0.9300 h1         1 F5Q       0.028950
     68 H37          9.5470     1.1080    -0.7760 h1         1 F5Q       0.028950
     69 H38          7.3070     0.3540    -1.4780 hc         1 F5Q       0.045950
     70 H39          7.1730     1.6600    -0.3040 hc         1 F5Q       0.045950
     71 C17          2.1990     2.4670     0.2390 c3         1 F5Q      -0.041100
     72 C26         10.8920    -1.0660     0.0430 c3         1 F5Q       0.154100
     73 H20          2.6620     3.1980    -0.4350 hc         1 F5Q       0.052200
     74 H21          2.3790     2.8310     1.2590 hc         1 F5Q       0.052200
@<TRIPOS>BOND
     1     1     3 ar  
     2     1    14 ar  
     3     1    19 ar  
     4     2    11 ar  
     5     2    26 ar  
     6     2    71 1   
     7     3     4 ar  
     8     3    13 1   
     9     4    12 1   
    10     4    24 ar  
    11     5    10 ar  
    12     5    17 1   
    13     5    25 ar  
    14     6     7 1   
    15     6    12 1   
    16     6    35 1   
    17     6    36 1   
    18     7     8 1   
    19     7    37 1   
    20     7    38 1   
    21     8     9 1   
    22     8    39 1   
    23     8    40 1   
    24     9    12 1   
    25     9    41 1   
    26     9    42 1   
    27    10    11 ar  
    28    10    43 1   
    29    11    44 1   
    30    13    17 1   
    31    13    45 1   
    32    14    22 ar  
    33    14    23 ar  
    34    15    32 1   
    35    15    33 1   
    36    15    72 1   
    37    16    17 2   
    38    17    18 2   
    39    19    20 ar  
    40    19    46 1   
    41    20    21 ar  
    42    20    47 1   
    43    21    22 ar  
    44    21    48 1   
    45    23    24 ar  
    46    23    49 1   
    47    24    50 1   
    48    25    26 ar  
    49    25    51 1   
    50    26    52 1   
    51    27    28 1   
    52    27    53 1   
    53    27    54 1   
    54    27    71 1   
    55    28    29 1   
    56    28    55 1   
    57    28    56 1   
    58    29    30 1   
    59    29    57 1   
    60    29    58 1   
    61    30    31 1   
    62    30    34 1   
    63    30    59 1   
    64    31    32 1   
    65    31    60 1   
    66    31    61 1   
    67    32    62 1   
    68    32    63 1   
    69    33    34 1   
    70    33    67 1   
    71    33    68 1   
    72    34    69 1   
    73    34    70 1   
    74    64    72 1   
    75    65    72 1   
    76    66    72 1   
    77    71    73 1   
    78    71    74 1   
@<TRIPOS>SUBSTRUCTURE
     1 F5Q         1 TEMP              0 ****  ****    0 ROOT
