@<TRIPOS>MOLECULE
F5Q
   74    78     1     0     0
SMALL
bcc


@<TRIPOS>ATOM
      1 C4          -2.0290    -1.1870     0.4950 ca         1 F5Q      -0.097300
      2 C14          0.9400     2.2670    -0.1580 ca         1 F5Q      -0.020300
      3 C5          -3.3740    -0.7600     0.3080 ca         1 F5Q      -0.034400
      4 C6          -4.3500    -1.0060     1.2840 ca         1 F5Q       0.279600
      5 C11         -1.7860     1.9460    -0.6030 ca         1 F5Q      -0.306500
      6 C7          -6.6280    -1.2980     2.1650 c5         1 F5Q       0.226800
      7 C8          -7.9510    -1.4420     1.4270 c5         1 F5Q      -0.095900
      8 C9          -7.8530    -0.3880     0.3390 c5         1 F5Q      -0.095900
      9 C10         -6.3930    -0.4600    -0.0840 c5         1 F5Q       0.226800
     10 C12         -0.9270     2.0770    -1.6870 ca         1 F5Q      -0.027500
     11 C13          0.4270     2.2410    -1.4550 ca         1 F5Q      -0.149500
     12 N1          -5.6890    -0.8250     1.1440 nh         1 F5Q      -0.663000
     13 N2          -3.6870    -0.0440    -0.8750 nu         1 F5Q      -0.686500
     14 C3          -1.6080    -1.7330     1.7300 ca         1 F5Q       0.348600
     15 N3           9.5560    -0.8320    -0.5370 n3         1 F5Q      -0.716600
     16 O2          -4.2230     2.1130     0.2770 o          1 F5Q      -0.610300
     17 S           -3.4950     1.6080    -0.8750 sy         1 F5Q       1.285200
     18 O1          -3.8580     2.0380    -2.2160 o          1 F5Q      -0.610300
     19 C27         -1.0430    -1.1020    -0.5160 ca         1 F5Q      -0.110000
     20 C28          0.2340    -1.5080    -0.2540 ca         1 F5Q      -0.224300
     21 C29          0.5450    -2.0060     1.0240 ca         1 F5Q       0.388200
     22 N4          -0.3400    -2.1250     1.9780 nb         1 F5Q      -0.642000
     23 C2          -2.5710    -1.8400     2.7580 ca         1 F5Q      -0.114300
     24 C1          -3.8680    -1.4990     2.5450 ca         1 F5Q      -0.193000
     25 C16         -1.3050     1.9960     0.6990 ca         1 F5Q      -0.027500
     26 C15          0.0540     2.1500     0.9110 ca         1 F5Q      -0.149500
     27 C18          3.1050     1.0080    -0.1140 c3         1 F5Q      -0.074400
     28 C19          4.6080     1.0690     0.1220 c3         1 F5Q      -0.075400
     29 C20          5.2880    -0.2710    -0.1350 c3         1 F5Q      -0.070400
     30 C21          6.7750    -0.3110     0.2060 c6         1 F5Q      -0.059700
     31 C25          7.3400    -1.7170     0.0240 c6         1 F5Q      -0.072900
     32 C24          8.8330    -1.7660     0.3040 c6         1 F5Q       0.167800
     33 C23          9.0930     0.5250    -0.3260 c6         1 F5Q       0.167800
     34 C22          7.6070     0.6630    -0.6240 c6         1 F5Q      -0.072900
     35 H1          -6.7050    -0.5810     2.9890 h1         1 F5Q       0.051700
     36 H2          -6.3150    -2.2540     2.5880 h1         1 F5Q       0.051700
     37 H3          -8.0240    -2.4370     0.9840 hc         1 F5Q       0.057450
     38 H4          -8.8050    -1.3110     2.0920 hc         1 F5Q       0.057450
     39 H5          -8.5280    -0.5620    -0.4990 hc         1 F5Q       0.057450
     40 H6          -8.0750     0.6020     0.7450 hc         1 F5Q       0.057450
     41 H7          -6.2410    -1.2160    -0.8610 h1         1 F5Q       0.051700
     42 H8          -6.0590     0.4920    -0.4810 h1         1 F5Q       0.051700
     43 H9          -1.3020     2.0480    -2.7010 ha         1 F5Q       0.154000
     44 H10          1.0990     2.3460    -2.2980 ha         1 F5Q       0.136000
     45 H11         -3.4610    -0.4690    -1.7670 hn         1 F5Q       0.432800
     46 H13         -1.2910    -0.7350    -1.5020 ha         1 F5Q       0.125000
     47 H14          1.0010    -1.4460    -1.0130 ha         1 F5Q       0.139000
     48 H15          1.5590    -2.3220     1.2500 h4         1 F5Q       0.018100
     49 H16         -2.2570    -2.2020     3.7290 ha         1 F5Q       0.150000
     50 H17         -4.5530    -1.5910     3.3740 ha         1 F5Q       0.139000
     51 H18         -1.9750     1.9080     1.5440 ha         1 F5Q       0.154000
     52 H19          0.4300     2.1810     1.9260 ha         1 F5Q       0.136000
     53 H22          2.6540     0.2790     0.5660 hc         1 F5Q       0.041200
     54 H23          2.9050     0.6400    -1.1260 hc         1 F5Q       0.041200
     55 H24          5.0410     1.8420    -0.5200 hc         1 F5Q       0.039700
     56 H25          4.7990     1.3890     1.1520 hc         1 F5Q       0.039700
     57 H26          4.7760    -1.0450     0.4480 hc         1 F5Q       0.038700
     58 H27          5.1550    -0.5490    -1.1870 hc         1 F5Q       0.038700
     59 H28          6.8890    -0.0350     1.2640 hc         1 F5Q       0.043700
     60 H29          6.8260    -2.4230     0.6830 hc         1 F5Q       0.045950
     61 H30          7.1570    -2.0510    -1.0030 hc         1 F5Q       0.045950
     62 H31          9.2120    -2.7740     0.1130 h1         1 F5Q       0.028950
     63 H32          9.0100    -1.5610     1.3760 h1         1 F5Q       0.028950
     64 H33         11.3090    -0.7010     0.6770 h1         1 F5Q       0.029367
     65 H34         11.3140    -1.9580    -0.5680 h1         1 F5Q       0.029367
     66 H35         11.5050    -0.2670    -1.0290 h1         1 F5Q       0.029367
     67 H36          9.2860     0.8570     0.7120 h1         1 F5Q       0.028950
     68 H37          9.6630     1.1940    -0.9760 h1         1 F5Q       0.028950
     69 H38          7.4330     0.4730    -1.6890 hc         1 F5Q       0.045950
     70 H39          7.3100     1.6970    -0.4330 hc         1 F5Q       0.045950
     71 C17          2.4180     2.3630     0.0720 c3         1 F5Q      -0.041100
     72 C26         10.9830    -0.9420    -0.3480 c3         1 F5Q       0.154100
     73 H20          2.8560     3.0870    -0.6210 hc         1 F5Q       0.052200
     74 H21          2.6140     2.7340     1.0810 hc         1 F5Q       0.052200
@<TRIPOS>BOND
     1     1     3 ar  
     2     1    14 ar  
     3     1    19 ar  
     4     2    11 ar  
     5     2    26 ar  
     6     2    71 1   
     7     3     4 ar  
     8     3    13 1   
     9     4    12 1   
    10     4    24 ar  
    11     5    10 ar  
    12     5    17 1   
    13     5    25 ar  
    14     6     7 1   
    15     6    12 1   
    16     6    35 1   
    17     6    36 1   
    18     7     8 1   
    19     7    37 1   
    20     7    38 1   
    21     8     9 1   
    22     8    39 1   
    23     8    40 1   
    24     9    12 1   
    25     9    41 1   
    26     9    42 1   
    27    10    11 ar  
    28    10    43 1   
    29    11    44 1   
    30    13    17 1   
    31    13    45 1   
    32    14    22 ar  
    33    14    23 ar  
    34    15    32 1   
    35    15    33 1   
    36    15    72 1   
    37    16    17 2   
    38    17    18 2   
    39    19    20 ar  
    40    19    46 1   
    41    20    21 ar  
    42    20    47 1   
    43    21    22 ar  
    44    21    48 1   
    45    23    24 ar  
    46    23    49 1   
    47    24    50 1   
    48    25    26 ar  
    49    25    51 1   
    50    26    52 1   
    51    27    28 1   
    52    27    53 1   
    53    27    54 1   
    54    27    71 1   
    55    28    29 1   
    56    28    55 1   
    57    28    56 1   
    58    29    30 1   
    59    29    57 1   
    60    29    58 1   
    61    30    31 1   
    62    30    34 1   
    63    30    59 1   
    64    31    32 1   
    65    31    60 1   
    66    31    61 1   
    67    32    62 1   
    68    32    63 1   
    69    33    34 1   
    70    33    67 1   
    71    33    68 1   
    72    34    69 1   
    73    34    70 1   
    74    64    72 1   
    75    65    72 1   
    76    66    72 1   
    77    71    73 1   
    78    71    74 1   
@<TRIPOS>SUBSTRUCTURE
     1 F5Q         1 TEMP              0 ****  ****    0 ROOT
