@<TRIPOS>MOLECULE
F5R
   17    17     1     0     0
SMALL
abcg2


@<TRIPOS>ATOM
      1 N1          58.0690    43.2920    19.2420 n2         1 F5R      -0.822100
      2 C4          56.0260    43.8650    14.9690 ca         1 F5R      -0.094000
      3 C5          56.3210    43.0930    16.0840 ca         1 F5R      -0.078500
      4 C6          56.8430    43.6710    17.2380 ca         1 F5R      -0.132900
      5 C7          57.1730    42.8590    18.4420 ce         1 F5R       0.656800
      6 C1          57.0750    45.0440    17.2530 ca         1 F5R      -0.078500
      7 C2          56.7780    45.8310    16.1520 ca         1 F5R      -0.094000
      8 C3          56.2540    45.2310    15.0150 ca         1 F5R      -0.007900
      9 N2          56.5020    41.6740    18.5470 nv         1 F5R      -1.072200
     10 BR1         55.8460    46.2920    13.5100 br         1 F5R      -0.095100
     11 H5          58.1840    42.6680    20.0360 hn         1 F5R       0.373400
     12 H4          56.1520    42.0260    16.0260 ha         1 F5R       0.131500
     13 H1          57.4850    45.5060    18.1400 ha         1 F5R       0.131500
     14 H2          56.9540    46.8970    16.1900 ha         1 F5R       0.131500
     15 H6          56.5900    41.1750    19.4190 hn         1 F5R       0.460500
     16 H7          55.5820    41.6100    18.1440 hn         1 F5R       0.460500
     17 H3          55.6270    43.3930    14.0820 ha         1 F5R       0.131500
@<TRIPOS>BOND
     1     1     5 2   
     2     1    11 1   
     3     2     3 ar  
     4     2     8 ar  
     5     2    17 1   
     6     3     4 ar  
     7     3    12 1   
     8     4     5 1   
     9     4     6 ar  
    10     5     9 1   
    11     6     7 ar  
    12     6    13 1   
    13     7     8 ar  
    14     7    14 1   
    15     8    10 1   
    16     9    15 1   
    17     9    16 1   
@<TRIPOS>SUBSTRUCTURE
     1 F5R         1 TEMP              0 ****  ****    0 ROOT
