@<TRIPOS>MOLECULE
F5R
   17    17     1     0     0
SMALL
No Charge or Current Charge


@<TRIPOS>ATOM
      1 N1          57.9750    43.2500    19.3700 n2         1 F5R      -0.822100
      2 C4          56.0080    43.8740    14.9540 ca         1 F5R      -0.094000
      3 C5          56.3100    43.0880    16.0800 ca         1 F5R      -0.078500
      4 C6          56.8320    43.6800    17.2570 ca         1 F5R      -0.132900
      5 C7          57.1910    42.8500    18.4560 ce         1 F5R       0.656800
      6 C1          57.0770    45.0750    17.2550 ca         1 F5R      -0.078500
      7 C2          56.7740    45.8580    16.1280 ca         1 F5R      -0.094000
      8 C3          56.2360    45.2580    14.9800 ca         1 F5R      -0.007900
      9 N2          56.5700    41.6610    18.6200 nv         1 F5R      -1.072200
     10 Br1         55.8270    46.3240    13.4460 br         1 F5R      -0.095100
     11 H5          58.2220    42.4420    19.9530 hn         1 F5R       0.373400
     12 H4          56.1440    42.0140    16.0240 ha         1 F5R       0.131500
     13 H1          57.4970    45.5590    18.1350 ha         1 F5R       0.131500
     14 H2          56.9600    46.9300    16.1460 ha         1 F5R       0.131500
     15 H6          56.4900    41.3340    19.5760 hn         1 F5R       0.460500
     16 H7          55.7440    41.5210    18.0500 hn         1 F5R       0.460500
     17 H3          55.6030    43.4070    14.0590 ha         1 F5R       0.131500
@<TRIPOS>BOND
     1     1     5 2   
     2     1    11 1   
     3     2     3 ar  
     4     2     8 ar  
     5     2    17 1   
     6     3     4 ar  
     7     3    12 1   
     8     4     5 1   
     9     4     6 ar  
    10     5     9 1   
    11     6     7 ar  
    12     6    13 1   
    13     7     8 ar  
    14     7    14 1   
    15     8    10 1   
    16     9    15 1   
    17     9    16 1   
@<TRIPOS>SUBSTRUCTURE
     1 F5R         1 TEMP              0 ****  ****    0 ROOT
