@<TRIPOS>MOLECULE
F5S
   61    64     1     0     0
SMALL
abcg2


@<TRIPOS>ATOM
      1 C10          0.4760     1.2760     2.0080 c3         1 F5S      -0.095400
      2 C13          3.4820     2.1470     0.0100 ce         1 F5S      -0.153000
      3 C15          5.8490     1.7200    -0.4680 c2         1 F5S      -0.204200
      4 C17          4.7010    -0.5290    -0.7050 cx         1 F5S       0.086300
      5 C22         -1.2100     1.9090    -1.6530 c3         1 F5S       0.221900
      6 C24         -3.6770     2.4380    -1.6200 ca         1 F5S      -0.048000
      7 C26         -5.3170     0.7250    -1.2060 ca         1 F5S       0.149100
      8 C28         -6.9820    -0.8700    -0.6540 c3         1 F5S       0.151900
      9 O01         -0.5870    -3.2540     0.1540 oh         1 F5S      -0.541100
     10 C02         -0.8830    -2.1250     0.8080 ca         1 F5S       0.242100
     11 C03          0.0470    -1.0880     1.0470 ca         1 F5S      -0.276600
     12 C04          1.4700    -1.2370     0.6880 c          1 F5S       0.632700
     13 O05          1.6600    -2.0660    -0.3480 os         1 F5S      -0.505100
     14 C06          2.9730    -2.4670    -0.8380 c3         1 F5S       0.207300
     15 C07          3.7730    -3.2390     0.1920 c3         1 F5S      -0.121100
     16 O08          2.3760    -0.6910     1.2650 o          1 F5S      -0.484000
     17 C09         -0.3990     0.0700     1.7260 ca         1 F5S       0.076700
     18 C11          1.1680     1.9110     0.8250 cf         1 F5S       0.422600
     19 C12          2.5740     2.3030     0.9760 cf         1 F5S      -0.246600
     20 C14          4.9060     2.4380     0.1510 ce         1 F5S      -0.166000
     21 C16          5.5070     0.5340    -1.2970 cx         1 F5S       0.114500
     22 O18          6.0980    -0.7060    -0.9230 op         1 F5S      -0.438000
     23 C19          3.7250    -1.3270    -1.5320 c3         1 F5S      -0.090400
     24 N20          0.6180     2.1820    -0.2930 n2         1 F5S      -0.334700
     25 O21         -0.6960     1.8290    -0.3300 os         1 F5S      -0.309000
     26 C23         -2.6470     1.5020    -1.5640 ca         1 F5S      -0.136300
     27 C25         -4.9970     2.0610    -1.4520 ca         1 F5S      -0.178000
     28 C29         -4.2980    -0.2250    -1.1570 ca         1 F5S      -0.178000
     29 C30         -2.9820     0.1740    -1.3370 ca         1 F5S      -0.048000
     30 C31         -1.7020     0.1460     2.1710 ca         1 F5S      -0.191000
     31 C32         -2.5950    -0.9050     1.9620 ca         1 F5S       0.215100
     32 O33         -3.8430    -0.7530     2.4240 oh         1 F5S      -0.520100
     33 C34         -2.1860    -2.0390     1.2840 ca         1 F5S      -0.283000
     34 H102        -0.1510     2.0380     2.4780 hc         1 F5S       0.074200
     35 H101         1.2360     1.0200     2.7470 hc         1 F5S       0.074200
     36 H131         3.1540     1.7130    -0.9280 ha         1 F5S       0.183000
     37 H151         6.8960     1.9780    -0.3530 ha         1 F5S       0.192000
     38 H171         4.4430    -0.4010     0.3400 h1         1 F5S       0.118700
     39 H222        -1.1090     2.9260    -2.0440 h1         1 F5S       0.042700
     40 H221        -0.6510     1.2360    -2.3110 h1         1 F5S       0.042700
     41 H241        -3.4470     3.4840    -1.7900 ha         1 F5S       0.116500
     42 H282        -6.4840    -1.1820     0.2680 h1         1 F5S       0.038367
     43 H281        -8.0560    -0.8630    -0.4850 h1         1 F5S       0.038367
     44 H283        -6.7550    -1.5970    -1.4380 h1         1 F5S       0.038367
     45 H011         0.2920    -3.1730    -0.2490 ho         1 F5S       0.498000
     46 H061         2.6840    -3.1640    -1.6240 h1         1 F5S       0.066700
     47 H073         3.1930    -4.0740     0.5850 hc         1 F5S       0.056033
     48 H071         4.6520    -3.6560    -0.3020 hc         1 F5S       0.056033
     49 H072         4.1150    -2.6300     1.0260 hc         1 F5S       0.056033
     50 H121         2.8720     2.6630     1.9570 ha         1 F5S       0.184000
     51 H141         5.1990     3.2520     0.8050 ha         1 F5S       0.182000
     52 H2           5.4550     0.6890    -2.3760 h1         1 F5S       0.091700
     53 H192         2.9920    -0.6540    -1.9860 hc         1 F5S       0.064700
     54 H191         4.2690    -1.7690    -2.3700 hc         1 F5S       0.064700
     55 H251        -5.7880     2.7990    -1.4950 ha         1 F5S       0.120500
     56 H291        -4.5040    -1.2710    -0.9760 ha         1 F5S       0.120500
     57 H301        -2.2010    -0.5750    -1.2900 ha         1 F5S       0.116500
     58 H311        -2.0570     1.0450     2.6590 ha         1 F5S       0.137000
     59 H331        -4.3790    -1.5280     2.2200 ho         1 F5S       0.467000
     60 H341        -2.8690    -2.8600     1.0990 ha         1 F5S       0.130000
     61 O27         -6.6220     0.4450    -1.0240 os         1 F5S      -0.340100
@<TRIPOS>BOND
     1     1    17 1   
     2     1    18 1   
     3     1    34 1   
     4     1    35 1   
     5     2    19 2   
     6     2    20 1   
     7     2    36 1   
     8     3    20 2   
     9     3    21 1   
    10     3    37 1   
    11     4    21 1   
    12     4    22 1   
    13     4    23 1   
    14     4    38 1   
    15     5    25 1   
    16     5    26 1   
    17     5    39 1   
    18     5    40 1   
    19     6    26 ar  
    20     6    27 ar  
    21     6    41 1   
    22     7    27 ar  
    23     7    28 ar  
    24     7    61 1   
    25     8    42 1   
    26     8    43 1   
    27     8    44 1   
    28     8    61 1   
    29     9    10 1   
    30     9    45 1   
    31    10    11 ar  
    32    10    33 ar  
    33    11    12 1   
    34    11    17 ar  
    35    12    13 1   
    36    12    16 2   
    37    13    14 1   
    38    14    15 1   
    39    14    23 1   
    40    14    46 1   
    41    15    47 1   
    42    15    48 1   
    43    15    49 1   
    44    17    30 ar  
    45    18    19 1   
    46    18    24 2   
    47    19    50 1   
    48    20    51 1   
    49    21    22 1   
    50    21    52 1   
    51    23    53 1   
    52    23    54 1   
    53    24    25 1   
    54    26    29 ar  
    55    27    55 1   
    56    28    29 ar  
    57    28    56 1   
    58    29    57 1   
    59    30    31 ar  
    60    30    58 1   
    61    31    32 1   
    62    31    33 ar  
    63    32    59 1   
    64    33    60 1   
@<TRIPOS>SUBSTRUCTURE
     1 F5S         1 TEMP              0 ****  ****    0 ROOT
