@<TRIPOS>MOLECULE
F5S
   61    64     1     0     0
SMALL
No Charge or Current Charge


@<TRIPOS>ATOM
      1 C10          0.5630     1.1610     2.1190 c3         1 F5S      -0.095400
      2 C13          3.4220     2.3270    -0.1040 ce         1 F5S      -0.153000
      3 C15          5.8110     1.9560    -0.6150 c2         1 F5S      -0.204200
      4 C17          4.8410    -0.4120    -0.7280 cx         1 F5S       0.086300
      5 C22         -1.3180     1.5120    -1.6410 c3         1 F5S       0.221900
      6 C24         -3.6760     2.4480    -1.8380 ca         1 F5S      -0.048000
      7 C26         -5.6330     1.0650    -1.3830 ca         1 F5S       0.149100
      8 C28         -7.6830    -0.2360    -0.9410 c3         1 F5S       0.151900
      9 O01         -0.1660    -3.5470     0.4860 oh         1 F5S      -0.541100
     10 C02         -0.5970    -2.3970     1.0640 ca         1 F5S       0.242100
     11 C03          0.2760    -1.3000     1.2730 ca         1 F5S      -0.276600
     12 C04          1.7380    -1.4100     0.8870 c          1 F5S       0.632700
     13 O05          1.9460    -2.2350    -0.2010 os         1 F5S      -0.505100
     14 C06          3.2590    -2.5110    -0.7600 c3         1 F5S       0.207300
     15 C07          4.1730    -3.2050     0.2780 c3         1 F5S      -0.121100
     16 O08          2.6300    -0.8640     1.5120 o          1 F5S      -0.484000
     17 C09         -0.2550    -0.1180     1.8740 ca         1 F5S       0.076700
     18 C11          1.1560     1.8050     0.8680 cf         1 F5S       0.422600
     19 C12          2.5480     2.2540     0.9380 cf         1 F5S      -0.246600
     20 C14          4.8450     2.6580     0.0210 ce         1 F5S      -0.166000
     21 C16          5.5110     0.7410    -1.4240 cx         1 F5S       0.114500
     22 O18          6.2330    -0.4720    -1.1150 op         1 F5S      -0.438000
     23 C19          3.8340    -1.2650    -1.4960 c3         1 F5S      -0.090400
     24 N20          0.5920     1.7380    -0.3060 n2         1 F5S      -0.334700
     25 O21         -0.8200     1.7600    -0.3160 os         1 F5S      -0.309000
     26 C23         -2.8300     1.3580    -1.5580 ca         1 F5S      -0.136300
     27 C25         -5.0710     2.2980    -1.7510 ca         1 F5S      -0.178000
     28 C29         -4.7860    -0.0290    -1.1010 ca         1 F5S      -0.178000
     29 C30         -3.3910     0.1210    -1.1890 ca         1 F5S      -0.048000
     30 C31         -1.6120    -0.0920     2.2580 ca         1 F5S      -0.191000
     31 C32         -2.4420    -1.1940     2.0560 ca         1 F5S       0.215100
     32 O33         -3.7440    -1.1420     2.4430 oh         1 F5S      -0.520100
     33 C34         -1.9360    -2.3440     1.4570 ca         1 F5S      -0.283000
     34 H102        -0.0660     1.9150     2.6050 hc         1 F5S       0.074200
     35 H101         1.3500     0.9500     2.8510 hc         1 F5S       0.074200
     36 H131         3.0780     2.0350    -1.1000 ha         1 F5S       0.183000
     37 H151         6.8660     2.2090    -0.5010 ha         1 F5S       0.192000
     38 H171         4.6580    -0.3000     0.3400 h1         1 F5S       0.118700
     39 H222        -1.0580     2.3380    -2.3170 h1         1 F5S       0.042700
     40 H221        -0.8860     0.5890    -2.0520 h1         1 F5S       0.042700
     41 H241        -3.2540     3.4110    -2.1190 ha         1 F5S       0.116500
     42 H282        -7.3890    -0.5510     0.0680 h1         1 F5S       0.038367
     43 H281        -8.7690    -0.0850    -0.9480 h1         1 F5S       0.038367
     44 H283        -7.4470    -1.0440    -1.6460 h1         1 F5S       0.038367
     45 H011         0.7070    -3.3290     0.0760 ho         1 F5S       0.498000
     46 H061         3.1050    -3.2570    -1.5520 h1         1 F5S       0.066700
     47 H073         3.6580    -4.0620     0.7270 hc         1 F5S       0.056033
     48 H071         5.0790    -3.5790    -0.2130 hc         1 F5S       0.056033
     49 H072         4.4870    -2.5330     1.0830 hc         1 F5S       0.056033
     50 H121         2.9240     2.4770     1.9360 ha         1 F5S       0.184000
     51 H141         5.1080     3.4860     0.6840 ha         1 F5S       0.182000
     52 H2           5.3280     0.9040    -2.4870 h1         1 F5S       0.091700
     53 H192         2.9970    -0.6340    -1.8180 hc         1 F5S       0.064700
     54 H191         4.3110    -1.6150    -2.4190 hc         1 F5S       0.064700
     55 H251        -5.7200     3.1420    -1.9670 ha         1 F5S       0.120500
     56 H291        -5.1880    -0.9960    -0.8130 ha         1 F5S       0.120500
     57 H301        -2.7430    -0.7250    -0.9660 ha         1 F5S       0.116500
     58 H311        -2.0340     0.7990     2.7150 ha         1 F5S       0.137000
     59 H331        -4.1530    -2.0100     2.2480 ho         1 F5S       0.467000
     60 H341        -2.5760    -3.2060     1.2900 ha         1 F5S       0.130000
     61 O27         -7.0090     0.9790    -1.3140 os         1 F5S      -0.340100
@<TRIPOS>BOND
     1     1    17 1   
     2     1    18 1   
     3     1    34 1   
     4     1    35 1   
     5     2    19 2   
     6     2    20 1   
     7     2    36 1   
     8     3    20 2   
     9     3    21 1   
    10     3    37 1   
    11     4    21 1   
    12     4    22 1   
    13     4    23 1   
    14     4    38 1   
    15     5    25 1   
    16     5    26 1   
    17     5    39 1   
    18     5    40 1   
    19     6    26 ar  
    20     6    27 ar  
    21     6    41 1   
    22     7    27 ar  
    23     7    28 ar  
    24     7    61 1   
    25     8    42 1   
    26     8    43 1   
    27     8    44 1   
    28     8    61 1   
    29     9    10 1   
    30     9    45 1   
    31    10    11 ar  
    32    10    33 ar  
    33    11    12 1   
    34    11    17 ar  
    35    12    13 1   
    36    12    16 2   
    37    13    14 1   
    38    14    15 1   
    39    14    23 1   
    40    14    46 1   
    41    15    47 1   
    42    15    48 1   
    43    15    49 1   
    44    17    30 ar  
    45    18    19 1   
    46    18    24 2   
    47    19    50 1   
    48    20    51 1   
    49    21    22 1   
    50    21    52 1   
    51    23    53 1   
    52    23    54 1   
    53    24    25 1   
    54    26    29 ar  
    55    27    55 1   
    56    28    29 ar  
    57    28    56 1   
    58    29    57 1   
    59    30    31 ar  
    60    30    58 1   
    61    31    32 1   
    62    31    33 ar  
    63    32    59 1   
    64    33    60 1   
@<TRIPOS>SUBSTRUCTURE
     1 F5S         1 TEMP              0 ****  ****    0 ROOT
