@<TRIPOS>MOLECULE
F5U
   28    29     1     0     0
SMALL
abcg2


@<TRIPOS>ATOM
      1 N1          55.4210    45.9760    14.0220 na         1 F5U      -0.236700
      2 C4          57.1920    45.6060    15.3670 ca         1 F5U      -0.059800
      3 C5          56.5870    46.5440    14.4860 ca         1 F5U      -0.073200
      4 C6          57.1760    47.7740    14.2170 ca         1 F5U      -0.096000
      5 C7          58.3820    48.0780    14.8360 ca         1 F5U      -0.162000
      6 C8          55.2800    44.7240    14.5770 cc         1 F5U      -0.146100
      7 C1          60.8480    48.6380    16.0880 c3         1 F5U       0.151900
      8 C11         56.3020    43.4170    17.7130 c3         1 F5U       0.148800
      9 C2          58.9920    47.1600    15.7130 ca         1 F5U       0.102100
     10 C3          58.4070    45.9290    15.9810 ca         1 F5U      -0.098000
     11 C9          56.3370    44.4480    15.4070 cd         1 F5U      -0.145400
     12 N2          56.5880    42.1880    18.4640 n8         1 F5U      -1.004200
     13 O1          60.1800    47.4110    16.3550 os         1 F5U      -0.355100
     14 H7          54.7790    46.4000    13.3740 hn         1 F5U       0.350000
     15 H5          56.7120    48.4830    13.5430 ha         1 F5U       0.112000
     16 H6          58.8460    49.0320    14.6340 ha         1 F5U       0.114000
     17 H8          54.4270    44.1110    14.3330 h4         1 F5U       0.210000
     18 H9          55.8950    42.4150    15.8550 hc         1 F5U       0.049700
     19 H10         57.5820    42.8520    16.0910 hc         1 F5U       0.049700
     20 H3          61.7590    48.6190    16.6820 h1         1 F5U       0.037367
     21 H1          61.1050    48.7290    15.0290 h1         1 F5U       0.037367
     22 H2          60.2390    49.4960    16.3860 h1         1 F5U       0.037367
     23 H11         56.9610    44.2030    18.0870 h1         1 F5U       0.032200
     24 H12         55.2710    43.7730    17.8460 h1         1 F5U       0.032200
     25 H4          58.8980    45.2420    16.6590 ha         1 F5U       0.133000
     26 H13         56.4360    42.3470    19.4550 hn         1 F5U       0.391000
     27 H14         55.9260    41.4650    18.1930 hn         1 F5U       0.391000
     28 C10         56.5550    43.2100    16.2170 c3         1 F5U      -0.002200
@<TRIPOS>BOND
     1     1     3 1   
     2     1     6 1   
     3     1    14 1   
     4     2     3 ar  
     5     2    10 ar  
     6     2    11 1   
     7     3     4 ar  
     8     4     5 ar  
     9     4    15 1   
    10     5     9 ar  
    11     5    16 1   
    12     6    11 2   
    13     6    17 1   
    14     7    13 1   
    15     7    20 1   
    16     7    21 1   
    17     7    22 1   
    18     8    12 1   
    19     8    23 1   
    20     8    24 1   
    21     8    28 1   
    22     9    10 ar  
    23     9    13 1   
    24    10    25 1   
    25    11    28 1   
    26    12    26 1   
    27    12    27 1   
    28    18    28 1   
    29    19    28 1   
@<TRIPOS>SUBSTRUCTURE
     1 F5U         1 TEMP              0 ****  ****    0 ROOT
