@<TRIPOS>MOLECULE
F5U
   28    29     1     0     0
SMALL
No Charge or Current Charge


@<TRIPOS>ATOM
      1 N1          55.3950    45.9610    14.0320 na         1 F5U      -0.236700
      2 C4          57.1850    45.6210    15.3360 ca         1 F5U      -0.059800
      3 C5          56.5780    46.5090    14.4970 ca         1 F5U      -0.073200
      4 C6          57.1450    47.7570    14.2120 ca         1 F5U      -0.096000
      5 C7          58.3770    48.0790    14.8240 ca         1 F5U      -0.162000
      6 C8          55.2130    44.6730    14.5780 cc         1 F5U      -0.146100
      7 C1          60.9170    48.6640    16.1210 c3         1 F5U       0.151900
      8 C11         56.3160    43.4220    17.7050 c3         1 F5U       0.148800
      9 C2          59.0120    47.1510    15.6990 ca         1 F5U       0.102100
     10 C3          58.4070    45.9030    15.9590 ca         1 F5U      -0.098000
     11 C9          56.3230    44.4620    15.3890 cd         1 F5U      -0.145400
     12 N2          56.5690    42.1970    18.4950 n8         1 F5U      -1.004200
     13 O1          60.2160    47.4230    16.3170 os         1 F5U      -0.355100
     14 H7          54.7550    46.4220    13.3910 hn         1 F5U       0.350000
     15 H5          56.6530    48.4590    13.5420 ha         1 F5U       0.112000
     16 H6          58.8240    49.0450    14.6090 ha         1 F5U       0.114000
     17 H8          54.3540    44.0440    14.3590 h4         1 F5U       0.210000
     18 H9          55.9640    42.3930    15.8290 hc         1 F5U       0.049700
     19 H10         57.6300    42.9010    16.0600 hc         1 F5U       0.049700
     20 H3          61.8480    48.6710    16.7030 h1         1 F5U       0.037367
     21 H1          61.1760    48.8030    15.0640 h1         1 F5U       0.037367
     22 H2          60.3050    49.5140    16.4490 h1         1 F5U       0.037367
     23 H11         56.9610    44.2260    18.0870 h1         1 F5U       0.032200
     24 H12         55.2690    43.7250    17.8480 h1         1 F5U       0.032200
     25 H4          58.8790    45.1840    16.6240 ha         1 F5U       0.133000
     26 H13         56.3190    42.3750    19.4760 hn         1 F5U       0.391000
     27 H14         55.9030    41.4700    18.2070 hn         1 F5U       0.391000
     28 C10         56.5890    43.2150    16.1980 c3         1 F5U      -0.002200
@<TRIPOS>BOND
     1     1     3 1   
     2     1     6 1   
     3     1    14 1   
     4     2     3 ar  
     5     2    10 ar  
     6     2    11 1   
     7     3     4 ar  
     8     4     5 ar  
     9     4    15 1   
    10     5     9 ar  
    11     5    16 1   
    12     6    11 2   
    13     6    17 1   
    14     7    13 1   
    15     7    20 1   
    16     7    21 1   
    17     7    22 1   
    18     8    12 1   
    19     8    23 1   
    20     8    24 1   
    21     8    28 1   
    22     9    10 ar  
    23     9    13 1   
    24    10    25 1   
    25    11    28 1   
    26    12    26 1   
    27    12    27 1   
    28    18    28 1   
    29    19    28 1   
@<TRIPOS>SUBSTRUCTURE
     1 F5U         1 TEMP              0 ****  ****    0 ROOT
