@<TRIPOS>MOLECULE
F5V
   49    52     1     0     0
SMALL
abcg2


@<TRIPOS>ATOM
      1 C16          6.4170    -4.1640    -0.4710 c3         1 F5V       0.071900
      2 N14          5.2700    -3.3190    -0.2420 na         1 F5V       0.136800
      3 C15          5.1920    -1.9920    -0.4060 cc         1 F5V      -0.146000
      4 N13          4.1360    -3.8420     0.2160 nc         1 F5V      -0.523800
      5 C12          3.3070    -2.8260     0.3410 cd         1 F5V       0.260900
      6 C11          3.9130    -1.6100    -0.0370 cd         1 F5V      -0.173000
      7 C6           3.3380    -0.2720    -0.0420 ca         1 F5V       0.061000
      8 C1           1.9770    -0.0890     0.1380 ca         1 F5V      -0.127000
      9 C2           1.3990     1.1870     0.1480 ca         1 F5V       0.031200
     10 C5           4.1510     0.8630    -0.2270 ca         1 F5V      -0.136000
     11 C4           3.6010     2.1200    -0.2460 ca         1 F5V      -0.041000
     12 C3           2.2250     2.3050    -0.0630 ca         1 F5V      -0.176600
     13 C7           1.6800     3.6590    -0.1190 c          1 F5V       0.568600
     14 O17          2.3590     4.6620    -0.3010 o          1 F5V      -0.551000
     15 N8           0.3180     3.7580     0.0410 n          1 F5V      -0.287000
     16 C18         -0.2730     5.0870    -0.0170 c3         1 F5V       0.083300
     17 C9          -0.4780     2.6700     0.2640 cc         1 F5V      -0.027400
     18 C10         -0.0140     1.4040     0.3360 cd         1 F5V      -0.114400
     19 C19         -0.9580     0.3000     0.6060 ca         1 F5V      -0.013800
     20 C24         -2.0480     0.0900    -0.2340 ca         1 F5V      -0.139000
     21 C20         -0.8040    -0.5200     1.7240 ca         1 F5V      -0.099000
     22 C21         -1.7130    -1.5360     1.9780 ca         1 F5V      -0.099000
     23 C22         -2.7890    -1.7530     1.1290 ca         1 F5V      -0.083000
     24 C23         -2.9610    -0.9270     0.0250 ca         1 F5V       0.230000
     25 N25         -4.0460    -1.1410    -0.8640 nu         1 F5V      -0.866100
     26 S26         -5.5900    -0.7410    -0.3810 s6         1 F5V       1.185100
     27 O29         -6.4330    -0.9830    -1.5390 o          1 F5V      -0.523500
     28 O28         -5.8560    -1.4440     0.8620 o          1 F5V      -0.523500
     29 C27         -5.5590     1.0030    -0.0380 c3         1 F5V      -0.383100
     30 H1           6.8130    -4.5360     0.4720 h1         1 F5V       0.058700
     31 H2           6.1370    -5.0060    -1.1000 h1         1 F5V       0.058700
     32 H3           7.1860    -3.5870    -0.9760 h1         1 F5V       0.058700
     33 H4           6.0290    -1.4220    -0.7780 h4         1 F5V       0.155000
     34 H5           2.3040    -2.9930     0.7060 h4         1 F5V       0.040100
     35 H6           1.3360    -0.9520     0.2530 ha         1 F5V       0.123000
     36 H7           5.2200     0.7510    -0.3550 ha         1 F5V       0.114000
     37 H8           4.2360     2.9820    -0.4000 ha         1 F5V       0.135000
     38 H9          -0.0920     5.5460    -0.9870 h1         1 F5V       0.052700
     39 H10         -1.3440     5.0050     0.1370 h1         1 F5V       0.052700
     40 H11          0.1450     5.7290     0.7570 h1         1 F5V       0.052700
     41 H12         -1.5280     2.8880     0.4020 h4         1 F5V       0.196000
     42 H13         -2.1790     0.7190    -1.1070 ha         1 F5V       0.113000
     43 H14          0.0240    -0.3600     2.4030 ha         1 F5V       0.127000
     44 H15         -1.5810    -2.1700     2.8440 ha         1 F5V       0.125000
     45 H16         -3.4770    -2.5650     1.3150 ha         1 F5V       0.148000
     46 H17         -3.8710    -0.8310    -1.8150 hn         1 F5V       0.488000
     47 H18         -5.2930     1.5400    -0.9460 h1         1 F5V       0.102033
     48 H19         -6.5540     1.2960     0.2920 h1         1 F5V       0.102033
     49 H20         -4.8360     1.2060     0.7480 h1         1 F5V       0.102033
@<TRIPOS>BOND
     1     1     2 1   
     2     1    30 1   
     3     1    31 1   
     4     1    32 1   
     5     2     3 1   
     6     2     4 1   
     7     3     6 2   
     8     3    33 1   
     9     4     5 2   
    10     5     6 1   
    11     5    34 1   
    12     6     7 1   
    13     7     8 ar  
    14     7    10 ar  
    15     8     9 ar  
    16     8    35 1   
    17     9    12 ar  
    18     9    18 1   
    19    10    11 ar  
    20    10    36 1   
    21    11    12 ar  
    22    11    37 1   
    23    12    13 1   
    24    13    14 2   
    25    13    15 1   
    26    15    16 1   
    27    15    17 1   
    28    16    38 1   
    29    16    39 1   
    30    16    40 1   
    31    17    18 2   
    32    17    41 1   
    33    18    19 1   
    34    19    20 ar  
    35    19    21 ar  
    36    20    24 ar  
    37    20    42 1   
    38    21    22 ar  
    39    21    43 1   
    40    22    23 ar  
    41    22    44 1   
    42    23    24 ar  
    43    23    45 1   
    44    24    25 1   
    45    25    26 1   
    46    25    46 1   
    47    26    27 2   
    48    26    28 2   
    49    26    29 1   
    50    29    47 1   
    51    29    48 1   
    52    29    49 1   
@<TRIPOS>SUBSTRUCTURE
     1 F5V         1 TEMP              0 ****  ****    0 ROOT
