@<TRIPOS>MOLECULE
F5V
   49    52     1     0     0
SMALL
No Charge or Current Charge


@<TRIPOS>ATOM
      1 C16          6.4140    -4.3300     0.0650 c3         1 F5V       0.071900
      2 N14          5.2590    -3.4210     0.0680 na         1 F5V       0.136800
      3 C15          5.3010    -2.0350    -0.0380 cc         1 F5V      -0.146000
      4 N13          3.9840    -3.9300     0.1860 nc         1 F5V      -0.523800
      5 C12          3.2350    -2.8440     0.1510 cd         1 F5V       0.260900
      6 C11          3.9870    -1.6510     0.0130 cd         1 F5V      -0.173000
      7 C6           3.4690    -0.2700    -0.0550 ca         1 F5V       0.061000
      8 C1           2.0830    -0.0170    -0.0050 ca         1 F5V      -0.127000
      9 C2           1.5650     1.2990    -0.0500 ca         1 F5V       0.031200
     10 C5           4.3490     0.8180    -0.1800 ca         1 F5V      -0.136000
     11 C4           3.8520     2.1240    -0.2870 ca         1 F5V      -0.041000
     12 C3           2.4640     2.3700    -0.2420 ca         1 F5V      -0.176600
     13 C7           1.9460     3.7710    -0.4360 c          1 F5V       0.568600
     14 O17          2.7110     4.7220    -0.5590 o          1 F5V      -0.551000
     15 N8           0.5460     3.9360    -0.4940 n          1 F5V      -0.287000
     16 C18          0.0190     5.2990    -0.7400 c3         1 F5V       0.083300
     17 C9          -0.3320     2.8750    -0.2630 cc         1 F5V      -0.027400
     18 C10          0.1110     1.5980     0.0250 cd         1 F5V      -0.114400
     19 C19         -0.8960     0.5500     0.3290 ca         1 F5V      -0.013800
     20 C24         -2.1490     0.5550    -0.3240 ca         1 F5V      -0.139000
     21 C20         -0.6700    -0.4140     1.3350 ca         1 F5V      -0.099000
     22 C21         -1.6460    -1.3770     1.6360 ca         1 F5V      -0.099000
     23 C22         -2.8720    -1.3780     0.9520 ca         1 F5V      -0.083000
     24 C23         -3.1360    -0.4010    -0.0280 ca         1 F5V       0.230000
     25 N25         -4.3400    -0.3430    -0.7350 nu         1 F5V      -0.866100
     26 S26         -5.8430    -0.9300    -0.3370 s6         1 F5V       1.185100
     27 O29         -6.7490    -0.3500    -1.3280 o          1 F5V      -0.523500
     28 O28         -5.7080    -2.3830    -0.2110 o          1 F5V      -0.523500
     29 C27         -6.2050    -0.2230     1.2570 c3         1 F5V      -0.383100
     30 H1           6.4410    -4.8910     1.0060 h1         1 F5V       0.058700
     31 H2           6.3280    -5.0290    -0.7750 h1         1 F5V       0.058700
     32 H3           7.3400    -3.7520    -0.0390 h1         1 F5V       0.058700
     33 H4           6.2240    -1.4780    -0.1360 h4         1 F5V       0.155000
     34 H5           2.1610    -2.9540     0.2280 h4         1 F5V       0.040100
     35 H6           1.4100    -0.8630     0.0340 ha         1 F5V       0.123000
     36 H7           5.4230     0.6600    -0.2220 ha         1 F5V       0.114000
     37 H8           4.5540     2.9460    -0.4200 ha         1 F5V       0.135000
     38 H9           0.4650     5.7110    -1.6550 h1         1 F5V       0.052700
     39 H10         -1.0710     5.2810    -0.8620 h1         1 F5V       0.052700
     40 H11          0.2700     5.9510     0.1070 h1         1 F5V       0.052700
     41 H12         -1.3720     3.1850    -0.2680 h4         1 F5V       0.196000
     42 H13         -2.3510     1.2910    -1.0970 ha         1 F5V       0.113000
     43 H14          0.2500    -0.4020     1.9130 ha         1 F5V       0.127000
     44 H15         -1.4560    -2.1190     2.4090 ha         1 F5V       0.125000
     45 H16         -3.6050    -2.1380     1.1980 ha         1 F5V       0.148000
     46 H17         -4.5010     0.4480    -1.3430 hn         1 F5V       0.488000
     47 H18         -6.1710     0.8660     1.1510 h1         1 F5V       0.102033
     48 H19         -7.2040    -0.5620     1.5460 h1         1 F5V       0.102033
     49 H20         -5.4470    -0.5780     1.9630 h1         1 F5V       0.102033
@<TRIPOS>BOND
     1     1     2 1   
     2     1    30 1   
     3     1    31 1   
     4     1    32 1   
     5     2     3 1   
     6     2     4 1   
     7     3     6 2   
     8     3    33 1   
     9     4     5 2   
    10     5     6 1   
    11     5    34 1   
    12     6     7 1   
    13     7     8 ar  
    14     7    10 ar  
    15     8     9 ar  
    16     8    35 1   
    17     9    12 ar  
    18     9    18 1   
    19    10    11 ar  
    20    10    36 1   
    21    11    12 ar  
    22    11    37 1   
    23    12    13 1   
    24    13    14 2   
    25    13    15 1   
    26    15    16 1   
    27    15    17 1   
    28    16    38 1   
    29    16    39 1   
    30    16    40 1   
    31    17    18 2   
    32    17    41 1   
    33    18    19 1   
    34    19    20 ar  
    35    19    21 ar  
    36    20    24 ar  
    37    20    42 1   
    38    21    22 ar  
    39    21    43 1   
    40    22    23 ar  
    41    22    44 1   
    42    23    24 ar  
    43    23    45 1   
    44    24    25 1   
    45    25    26 1   
    46    25    46 1   
    47    26    27 2   
    48    26    28 2   
    49    26    29 1   
    50    29    47 1   
    51    29    48 1   
    52    29    49 1   
@<TRIPOS>SUBSTRUCTURE
     1 F5V         1 TEMP              0 ****  ****    0 ROOT
