@<TRIPOS>MOLECULE
F5W
   37    39     1     0     0
SMALL
No Charge or Current Charge


@<TRIPOS>ATOM
      1 C10         20.8540     5.2000    10.7760 ca         1 F5W      -0.001800
      2 C13         19.7920     6.3340    12.5850 c5         1 F5W      -0.026100
      3 C15         25.2860     6.1810     9.7440 c5         1 F5W      -0.074400
      4 C01         21.8360     0.9450     9.0540 c3         1 F5W      -0.095100
      5 C02         22.0000     2.2220     9.9010 c3         1 F5W      -0.096400
      6 N04         21.8690     4.7440     9.9200 na         1 F5W       0.016300
      7 C05         23.1260     5.3230    10.1550 ca         1 F5W       0.048900
      8 C06         23.3860     6.2020    11.1890 ca         1 F5W      -0.208800
      9 C07         22.3570     6.5920    12.0660 ca         1 F5W       0.465000
     10 N08         22.5960     7.4420    13.1040 nv         1 F5W      -1.058000
     11 C09         21.0710     6.0770    11.8230 ca         1 F5W      -0.208800
     12 C11         19.4250     4.7410    10.6420 c5         1 F5W      -0.050100
     13 C12         18.7140     5.8270    11.5430 c5         1 F5W      -0.074400
     14 C14         24.8420     6.6060    11.2020 c5         1 F5W      -0.026100
     15 C16         24.3260     5.0060     9.3000 c5         1 F5W      -0.050100
     16 H1          19.6440     7.3880    12.8450 hc         1 F5W       0.070950
     17 H2          26.3430     5.8950     9.6980 hc         1 F5W       0.073950
     18 H3          25.1680     7.0310     9.0620 hc         1 F5W       0.073950
     19 H4          22.0490     0.0540     9.6570 hc         1 F5W       0.052367
     20 H5          20.8110     0.8610     8.6700 hc         1 F5W       0.052367
     21 H6          22.5250     0.9530     8.2010 hc         1 F5W       0.052367
     22 H7          23.0210     2.2570    10.3000 hc         1 F5W       0.056200
     23 H8          21.3240     2.1670    10.7640 hc         1 F5W       0.056200
     24 H9          22.3820     3.5630     8.2380 h1         1 F5W       0.084200
     25 H10         20.6940     3.4730     8.7010 h1         1 F5W       0.084200
     26 H11         21.8970     7.5080    13.8390 hn         1 F5W       0.519000
     27 H12         23.5580     7.6010    13.3890 hn         1 F5W       0.519000
     28 H13         19.0470     4.7600     9.6130 hc         1 F5W       0.085700
     29 H14         18.3850     6.6660    10.9180 hc         1 F5W       0.073950
     30 H15         25.4030     6.0580    11.9690 hc         1 F5W       0.070950
     31 H16         24.9950     7.6770    11.3790 hc         1 F5W       0.070950
     32 H17         24.1240     5.0350     8.2230 hc         1 F5W       0.085700
     33 H18         24.7490     4.0240     9.5420 hc         1 F5W       0.085700
     34 H19         19.7550     5.7530    13.5140 hc         1 F5W       0.070950
     35 H20         19.2830     3.7300    11.0400 hc         1 F5W       0.085700
     36 H21         17.8140     5.4380    12.0320 hc         1 F5W       0.073950
     37 C03         21.7120     3.5140     9.1050 c3         1 F5W       0.039600
@<TRIPOS>BOND
     1     1     6 1   
     2     1    11 ar  
     3     1    12 1   
     4     2    11 1   
     5     2    13 1   
     6     2    16 1   
     7     2    34 1   
     8     3    14 1   
     9     3    15 1   
    10     3    17 1   
    11     3    18 1   
    12     4     5 1   
    13     4    19 1   
    14     4    20 1   
    15     4    21 1   
    16     5    22 1   
    17     5    23 1   
    18     5    37 1   
    19     6     7 2   
    20     6    37 1   
    21     7     8 ar  
    22     7    15 1   
    23     8     9 ar  
    24     8    14 1   
    25     9    10 1   
    26     9    11 ar  
    27    10    26 1   
    28    10    27 1   
    29    12    13 1   
    30    12    28 1   
    31    12    35 1   
    32    13    29 1   
    33    13    36 1   
    34    14    30 1   
    35    14    31 1   
    36    15    32 1   
    37    15    33 1   
    38    24    37 1   
    39    25    37 1   
@<TRIPOS>SUBSTRUCTURE
     1 F5W         1 TEMP              0 ****  ****    0 ROOT
