@<TRIPOS>MOLECULE
F5W
   37    39     1     0     0
SMALL
abcg2


@<TRIPOS>ATOM
      1 C10         20.9090     5.1280    10.8420 ca         1 F5W      -0.001800
      2 C13         19.7990     6.3340    12.5440 c5         1 F5W      -0.026100
      3 C15         25.3350     6.0540     9.8450 c5         1 F5W      -0.074400
      4 C01         21.7210     1.0860     8.8310 c3         1 F5W      -0.095100
      5 C02         21.9650     2.2280     9.8040 c3         1 F5W      -0.096400
      6 N04         21.9250     4.6930    10.0630 na         1 F5W       0.016300
      7 C05         23.1420     5.2540    10.2370 ca         1 F5W       0.048900
      8 C06         23.3770     6.2200    11.1780 ca         1 F5W      -0.208800
      9 C07         22.3460     6.6630    12.0310 ca         1 F5W       0.465000
     10 N08         22.5520     7.5640    12.9870 nv         1 F5W      -1.058000
     11 C09         21.0790     6.0880    11.8030 ca         1 F5W      -0.208800
     12 C11         19.5010     4.6190    10.8060 c5         1 F5W      -0.050100
     13 C12         18.7460     5.6640    11.6450 c5         1 F5W      -0.074400
     14 C14         24.8190     6.6300    11.1740 c5         1 F5W      -0.026100
     15 C16         24.3890     4.8960     9.4880 c5         1 F5W      -0.050100
     16 H1          19.5920     7.3960    12.6950 hc         1 F5W       0.070950
     17 H2          26.3730     5.7330     9.9020 hc         1 F5W       0.073950
     18 H3          25.2680     6.8180     9.0700 hc         1 F5W       0.073950
     19 H4          21.8890     0.1240     9.3140 hc         1 F5W       0.052367
     20 H5          20.6950     1.0960     8.4580 hc         1 F5W       0.052367
     21 H6          22.3880     1.1460     7.9700 hc         1 F5W       0.052367
     22 H7          22.9880     2.1830    10.1860 hc         1 F5W       0.056200
     23 H8          21.3030     2.1300    10.6670 hc         1 F5W       0.056200
     24 H9          22.4080     3.7100     8.2920 h1         1 F5W       0.084200
     25 H10         20.7210     3.6370     8.7330 h1         1 F5W       0.084200
     26 H11         21.8040     7.8880    13.5770 hn         1 F5W       0.519000
     27 H12         23.4560     7.9820    13.1330 hn         1 F5W       0.519000
     28 H13         19.1020     4.5350     9.7950 hc         1 F5W       0.085700
     29 H14         18.3090     6.4090    10.9800 hc         1 F5W       0.073950
     30 H15         25.3400     6.2000    12.0350 hc         1 F5W       0.070950
     31 H16         24.9530     7.7130    11.2300 hc         1 F5W       0.070950
     32 H17         24.2370     4.8060     8.4120 hc         1 F5W       0.085700
     33 H18         24.7690     3.9320     9.8390 hc         1 F5W       0.085700
     34 H19         19.8410     5.8740    13.5350 hc         1 F5W       0.070950
     35 H20         19.4550     3.6210    11.2520 hc         1 F5W       0.085700
     36 H21         17.9340     5.2190    12.2160 hc         1 F5W       0.073950
     37 C03         21.7320     3.5750     9.1330 c3         1 F5W       0.039600
@<TRIPOS>BOND
     1     1     6 1   
     2     1    11 ar  
     3     1    12 1   
     4     2    11 1   
     5     2    13 1   
     6     2    16 1   
     7     2    34 1   
     8     3    14 1   
     9     3    15 1   
    10     3    17 1   
    11     3    18 1   
    12     4     5 1   
    13     4    19 1   
    14     4    20 1   
    15     4    21 1   
    16     5    22 1   
    17     5    23 1   
    18     5    37 1   
    19     6     7 2   
    20     6    37 1   
    21     7     8 ar  
    22     7    15 1   
    23     8     9 ar  
    24     8    14 1   
    25     9    10 1   
    26     9    11 ar  
    27    10    26 1   
    28    10    27 1   
    29    12    13 1   
    30    12    28 1   
    31    12    35 1   
    32    13    29 1   
    33    13    36 1   
    34    14    30 1   
    35    14    31 1   
    36    15    32 1   
    37    15    33 1   
    38    24    37 1   
    39    25    37 1   
@<TRIPOS>SUBSTRUCTURE
     1 F5W         1 TEMP              0 ****  ****    0 ROOT
