@<TRIPOS>MOLECULE
F5X
   28    29     1     0     0
SMALL
abcg2


@<TRIPOS>ATOM
      1 N1          55.7100    44.3490    14.1520 na         1 F5X      -0.237700
      2 C4          56.8560    44.9160    14.6460 ca         1 F5X      -0.008200
      3 C5          57.4640    43.9610    15.5000 ca         1 F5X      -0.129800
      4 C6          58.6680    44.3030    16.1310 ca         1 F5X      -0.027000
      5 C7          59.2240    45.5470    15.9070 ca         1 F5X      -0.167000
      6 C8          56.6300    42.7850    15.4910 cc         1 F5X      -0.122400
      7 C10         56.8600    41.5280    16.2680 c3         1 F5X      -0.004200
      8 C1          58.6800    48.6620    14.0700 c3         1 F5X       0.148900
      9 C11         56.5980    41.6920    17.7680 c3         1 F5X       0.149800
     10 C2          58.5980    46.4810    15.0510 ca         1 F5X       0.156100
     11 C3          57.4050    46.1810    14.4090 ca         1 F5X      -0.224000
     12 C9          55.5790    43.0680    14.6600 cd         1 F5X      -0.167100
     13 N2          56.8950    40.4460    18.4860 n8         1 F5X      -1.004200
     14 O1          59.2560    47.6720    14.9160 os         1 F5X      -0.350100
     15 H8          55.0770    44.7820    13.5010 hn         1 F5X       0.348000
     16 H5          59.1640    43.6020    16.7920 ha         1 F5X       0.121000
     17 H6          60.1520    45.8350    16.3840 ha         1 F5X       0.126000
     18 H9          56.2120    40.7350    15.8820 hc         1 F5X       0.050200
     19 H10         57.8920    41.1870    16.1370 hc         1 F5X       0.050200
     20 H3          59.3530    49.5150    14.1030 h1         1 F5X       0.039700
     21 H1          58.5960    48.3010    13.0410 h1         1 F5X       0.039700
     22 H2          57.6910    48.9610    14.4290 h1         1 F5X       0.039700
     23 H11         57.2480    42.4740    18.1670 h1         1 F5X       0.032200
     24 H12         55.5640    42.0340    17.9070 h1         1 F5X       0.032200
     25 H4          56.9110    46.8800    13.7500 ha         1 F5X       0.117000
     26 H7          54.7370    42.4540    14.3810 h4         1 F5X       0.211000
     27 H14         56.7450    40.5790    19.4810 hn         1 F5X       0.391500
     28 H15         56.2370    39.7260    18.2000 hn         1 F5X       0.391500
@<TRIPOS>BOND
     1     1     2 1   
     2     1    12 1   
     3     1    15 1   
     4     2     3 ar  
     5     2    11 ar  
     6     3     4 ar  
     7     3     6 1   
     8     4     5 ar  
     9     4    16 1   
    10     5    10 ar  
    11     5    17 1   
    12     6     7 1   
    13     6    12 2   
    14     7     9 1   
    15     7    18 1   
    16     7    19 1   
    17     8    14 1   
    18     8    20 1   
    19     8    21 1   
    20     8    22 1   
    21     9    13 1   
    22     9    23 1   
    23     9    24 1   
    24    10    11 ar  
    25    10    14 1   
    26    11    25 1   
    27    12    26 1   
    28    13    27 1   
    29    13    28 1   
@<TRIPOS>SUBSTRUCTURE
     1 F5X         1 TEMP              0 ****  ****    0 ROOT
