@<TRIPOS>MOLECULE
F5X
   28    29     1     0     0
SMALL
No Charge or Current Charge


@<TRIPOS>ATOM
      1 N1          55.6830    44.3610    14.1010 na         1 F5X      -0.237700
      2 C4          56.8450    44.8790    14.6400 ca         1 F5X      -0.008200
      3 C5          57.4410    43.9700    15.4660 ca         1 F5X      -0.129800
      4 C6          58.6420    44.2520    16.1310 ca         1 F5X      -0.027000
      5 C7          59.2260    45.5190    15.9260 ca         1 F5X      -0.167000
      6 C8          56.6280    42.7860    15.4780 cc         1 F5X      -0.122400
      7 C10         56.8830    41.5220    16.2590 c3         1 F5X      -0.004200
      8 C1          58.6980    48.7200    14.0730 c3         1 F5X       0.148900
      9 C11         56.6550    41.7000    17.7770 c3         1 F5X       0.149800
     10 C2          58.6140    46.4670    15.0740 ca         1 F5X       0.156100
     11 C3          57.4010    46.1450    14.4160 ca         1 F5X      -0.224000
     12 C9          55.5570    43.0530    14.6290 cd         1 F5X      -0.167100
     13 N2          56.9010    40.4510    18.5320 n8         1 F5X      -1.004200
     14 O1          59.2380    47.6870    14.9170 os         1 F5X      -0.350100
     15 H8          55.0500    44.8270    13.4570 hn         1 F5X       0.348000
     16 H5          59.1120    43.5190    16.7830 ha         1 F5X       0.121000
     17 H6          60.1570    45.7700    16.4270 ha         1 F5X       0.126000
     18 H9          56.2290    40.7240    15.8880 hc         1 F5X       0.050200
     19 H10         57.9130    41.1890    16.0860 hc         1 F5X       0.050200
     20 H3          59.3470    49.6040    14.0920 h1         1 F5X       0.039700
     21 H1          58.6230    48.3750    13.0340 h1         1 F5X       0.039700
     22 H2          57.7010    49.0230    14.4180 h1         1 F5X       0.039700
     23 H11         57.3280    42.4800    18.1610 h1         1 F5X       0.032200
     24 H12         55.6200    42.0220    17.9560 h1         1 F5X       0.032200
     25 H4          56.9010    46.8440    13.7520 ha         1 F5X       0.117000
     26 H7          54.7180    42.4110    14.3690 h4         1 F5X       0.211000
     27 H14         56.6810    40.6110    19.5230 hn         1 F5X       0.391500
     28 H15         56.2110    39.7460    18.2440 hn         1 F5X       0.391500
@<TRIPOS>BOND
     1     1     2 1   
     2     1    12 1   
     3     1    15 1   
     4     2     3 ar  
     5     2    11 ar  
     6     3     4 ar  
     7     3     6 1   
     8     4     5 ar  
     9     4    16 1   
    10     5    10 ar  
    11     5    17 1   
    12     6     7 1   
    13     6    12 2   
    14     7     9 1   
    15     7    18 1   
    16     7    19 1   
    17     8    14 1   
    18     8    20 1   
    19     8    21 1   
    20     8    22 1   
    21     9    13 1   
    22     9    23 1   
    23     9    24 1   
    24    10    11 ar  
    25    10    14 1   
    26    11    25 1   
    27    12    26 1   
    28    13    27 1   
    29    13    28 1   
@<TRIPOS>SUBSTRUCTURE
     1 F5X         1 TEMP              0 ****  ****    0 ROOT
