@<TRIPOS>MOLECULE
F5Y
   54    57     1     0     0
SMALL
bcc


@<TRIPOS>ATOM
      1 C29          4.0220     3.5850    -1.4500 c3         1 F5Y      -0.070100
      2 C28          3.2950     2.5470    -0.6130 c3         1 F5Y      -0.181600
      3 S27          3.9060     0.9000    -0.9730 sy         1 F5Y       1.083300
      4 O31          3.5830     0.5840    -2.3640 o          1 F5Y      -0.595800
      5 O30          5.3060     0.8350    -0.5510 o          1 F5Y      -0.595800
      6 C21          2.9540    -0.1480     0.0780 ca         1 F5Y      -0.322500
      7 C20          1.7490    -0.6670    -0.3800 ca         1 F5Y       0.012000
      8 C22          3.4000    -0.4290     1.3600 ca         1 F5Y       0.012000
      9 C23          2.6340    -1.2240     2.1930 ca         1 F5Y      -0.247000
     10 C24          1.4150    -1.7400     1.7460 ca         1 F5Y       0.206100
     11 O25          0.6150    -2.5000     2.4930 os         1 F5Y      -0.301900
     12 C26          1.0070    -2.8210     3.8170 c3         1 F5Y       0.119700
     13 C19          0.9690    -1.4640     0.4400 ca         1 F5Y      -0.090800
     14 C10         -0.3240    -1.9930    -0.0460 cc         1 F5Y      -0.108400
     15 C2          -1.4570    -1.1290    -0.2500 ca         1 F5Y       0.036200
     16 C1          -1.4200     0.2450     0.0200 ca         1 F5Y      -0.147000
     17 C9          -0.4640    -3.3070    -0.3160 cd         1 F5Y       0.040600
     18 N8          -1.6230    -3.8620    -0.7780 n          1 F5Y      -0.353000
     19 C18         -1.6840    -5.2930    -1.0420 c3         1 F5Y       0.083300
     20 C7          -2.7590    -3.1220    -1.0140 c          1 F5Y       0.712100
     21 O17         -3.7760    -3.6600    -1.4340 o          1 F5Y      -0.629500
     22 C3          -2.6510    -1.6940    -0.7320 ca         1 F5Y      -0.175600
     23 C4          -3.7640    -0.8730    -0.9440 ca         1 F5Y      -0.057000
     24 C5          -3.7030     0.4740    -0.6900 ca         1 F5Y      -0.156000
     25 C6          -2.5210     1.0580    -0.1960 ca         1 F5Y       0.057000
     26 C11         -2.4560     2.4870     0.0800 cc         1 F5Y      -0.233300
     27 C12         -3.5070     3.3770     0.2130 cd         1 F5Y      -0.114300
     28 C15         -1.3170     3.2960     0.2730 cc         1 F5Y       0.323200
     29 N14         -1.6460     4.5520     0.4980 nd         1 F5Y      -0.525800
     30 N13         -2.9750     4.5810     0.4600 na         1 F5Y       0.115400
     31 C16         -3.6790     5.8210     0.6880 c3         1 F5Y       0.042600
     32 H1           3.8500     3.4370    -2.5140 hc         1 F5Y       0.053367
     33 H2           3.6500     4.5730    -1.1860 hc         1 F5Y       0.053367
     34 H3           5.0950     3.5730    -1.2620 hc         1 F5Y       0.053367
     35 H4           3.4400     2.7080     0.4560 h1         1 F5Y       0.092200
     36 H5           2.2240     2.5400    -0.8190 h1         1 F5Y       0.092200
     37 H6           1.4050    -0.4560    -1.3850 ha         1 F5Y       0.164000
     38 H7           4.3410    -0.0360     1.7220 ha         1 F5Y       0.155000
     39 H8           2.9980    -1.4300     3.1900 ha         1 F5Y       0.143000
     40 H9           0.2170    -3.4480     4.2240 h1         1 F5Y       0.048033
     41 H10          1.9460    -3.3780     3.8370 h1         1 F5Y       0.048033
     42 H11          1.1060    -1.9280     4.4380 h1         1 F5Y       0.048033
     43 H12         -0.5100     0.6720     0.4230 ha         1 F5Y       0.134000
     44 H13          0.3570    -3.9980    -0.1850 h4         1 F5Y       0.151000
     45 H14         -2.4400    -5.7680    -0.4200 h1         1 F5Y       0.052700
     46 H15         -1.9190    -5.4830    -2.0870 h1         1 F5Y       0.052700
     47 H16         -0.7180    -5.7340    -0.8140 h1         1 F5Y       0.052700
     48 H17         -4.6810    -1.3070    -1.3200 ha         1 F5Y       0.153000
     49 H18         -4.5710     1.0910    -0.8830 ha         1 F5Y       0.131000
     50 H19         -4.5750     3.2340     0.1600 h4         1 F5Y       0.174000
     51 H20         -0.2770     3.0100     0.2380 h4         1 F5Y       0.035100
     52 H21         -3.3740     6.5660    -0.0430 h1         1 F5Y       0.058367
     53 H22         -4.7460     5.6440     0.5890 h1         1 F5Y       0.058367
     54 H23         -3.4740     6.1950     1.6890 h1         1 F5Y       0.058367
@<TRIPOS>BOND
     1     1     2 1   
     2     1    32 1   
     3     1    33 1   
     4     1    34 1   
     5     2     3 1   
     6     2    35 1   
     7     2    36 1   
     8     3     4 2   
     9     3     5 2   
    10     3     6 1   
    11     6     7 ar  
    12     6     8 ar  
    13     7    13 ar  
    14     7    37 1   
    15     8     9 ar  
    16     8    38 1   
    17     9    10 ar  
    18     9    39 1   
    19    10    11 1   
    20    10    13 ar  
    21    11    12 1   
    22    12    40 1   
    23    12    41 1   
    24    12    42 1   
    25    13    14 1   
    26    14    15 1   
    27    14    17 2   
    28    15    16 ar  
    29    15    22 ar  
    30    16    25 ar  
    31    16    43 1   
    32    17    18 1   
    33    17    44 1   
    34    18    19 1   
    35    18    20 1   
    36    19    45 1   
    37    19    46 1   
    38    19    47 1   
    39    20    21 2   
    40    20    22 1   
    41    22    23 ar  
    42    23    24 ar  
    43    23    48 1   
    44    24    25 ar  
    45    24    49 1   
    46    25    26 1   
    47    26    27 2   
    48    26    28 1   
    49    27    30 1   
    50    27    50 1   
    51    28    29 2   
    52    28    51 1   
    53    29    30 1   
    54    30    31 1   
    55    31    52 1   
    56    31    53 1   
    57    31    54 1   
@<TRIPOS>SUBSTRUCTURE
     1 F5Y         1 TEMP              0 ****  ****    0 ROOT
