@<TRIPOS>MOLECULE
F5Z
   74    77     1     0     0
SMALL
No Charge or Current Charge


@<TRIPOS>ATOM
      1 CAS         -7.3740    -0.5160    -0.3000 c6         1 F5Z      -0.072900
      2 CAU         -8.8670    -0.2150    -0.0160 c6         1 F5Z       0.167300
      3 NBH         -9.2400     1.1660    -0.4250 n3         1 F5Z      -0.715600
      4 CAC        -10.6840     1.4310    -0.2560 c3         1 F5Z       0.153100
      5 CAV         -8.3950     2.1800     0.2610 c6         1 F5Z       0.167300
      6 CAT         -6.8890     1.9520    -0.0200 c6         1 F5Z      -0.072900
      7 CBG         -6.4450     0.5220     0.3890 c6         1 F5Z      -0.060700
      8 CAR         -4.9340     0.2940     0.0770 c3         1 F5Z      -0.070400
      9 CAP         -4.3480    -1.0490     0.5750 c3         1 F5Z      -0.075400
     10 CAO         -2.8300    -1.1690     0.3240 c3         1 F5Z      -0.074400
     11 CAQ         -2.2310    -2.5050     0.8140 c3         1 F5Z      -0.042100
     12 CAZ         -0.7340    -2.5710     0.5530 ca         1 F5Z      -0.019300
     13 CAI         -0.2430    -3.1500    -0.6320 ca         1 F5Z      -0.131000
     14 CAK          1.1350    -3.1510    -0.9060 ca         1 F5Z      -0.011500
     15 CAH          0.1680    -2.0120     1.4760 ca         1 F5Z      -0.131000
     16 CAJ          1.5470    -2.0100     1.2100 ca         1 F5Z      -0.011500
     17 CBB          2.0340    -2.5660     0.0100 ca         1 F5Z      -0.314500
     18 SBI          3.7780    -2.4260    -0.3850 sy         1 F5Z       1.157600
     19 OAD          4.5740    -2.4350     0.8440 o          1 F5Z      -0.531500
     20 OAE          4.1040    -3.2590    -1.5440 o          1 F5Z      -0.531500
     21 NAY          3.9440    -0.8610    -0.9820 nu         1 F5Z      -0.898100
     22 CBC          3.5230     0.2930    -0.3070 ca         1 F5Z       0.247000
     23 CBE          2.2060     0.7980    -0.5060 ca         1 F5Z      -0.092000
     24 CAM          1.3100     0.2140    -1.4360 ca         1 F5Z      -0.069000
     25 CAF          0.0120     0.7310    -1.5470 ca         1 F5Z      -0.158000
     26 CAG         -0.3600     1.8180    -0.7470 ca         1 F5Z       0.348900
     27 NAX          0.4880     2.4020     0.1270 nb         1 F5Z      -0.654000
     28 CBD          1.7440     1.9090     0.2500 ca         1 F5Z       0.268000
     29 CAN          2.6160     2.5190     1.1640 ca         1 F5Z      -0.074000
     30 CAL          3.9280     2.0600     1.3280 ca         1 F5Z      -0.104000
     31 CBA          4.4000     0.9570     0.5950 ca         1 F5Z      -0.012300
     32 CAW          5.8690     0.5500     0.7900 c3         1 F5Z      -0.030100
     33 CBF          6.8770     1.6140     0.2780 c3         1 F5Z      -0.056700
     34 CAB          8.3320     1.2130     0.6090 c3         1 F5Z      -0.087600
     35 CAA          6.7080     1.8940    -1.2340 c3         1 F5Z      -0.087600
     36 H1          -7.1460    -1.5300     0.0520 hc         1 F5Z       0.045950
     37 H2          -7.2010    -0.5130    -1.3850 hc         1 F5Z       0.045950
     38 H3          -9.4820    -0.9500    -0.5560 h1         1 F5Z       0.029450
     39 H4          -9.0620    -0.3590     1.0580 h1         1 F5Z       0.029450
     40 H6         -10.9740     1.3660     0.8020 h1         1 F5Z       0.029700
     41 H7         -10.9400     2.4350    -0.6210 h1         1 F5Z       0.029700
     42 H8         -11.2810     0.7030    -0.8220 h1         1 F5Z       0.029700
     43 H9          -8.6660     3.1920    -0.0760 h1         1 F5Z       0.029450
     44 H10         -8.5660     2.1450     1.3480 h1         1 F5Z       0.029450
     45 H11         -6.6920     2.1150    -1.0890 hc         1 F5Z       0.045950
     46 H12         -6.3000     2.7010     0.5250 hc         1 F5Z       0.045950
     47 H13         -6.5590     0.4250     1.4790 hc         1 F5Z       0.043700
     48 H14         -4.7660     0.3690    -1.0050 hc         1 F5Z       0.038700
     49 H15         -4.3510     1.1050     0.5300 hc         1 F5Z       0.038700
     50 H16         -4.5460    -1.1530     1.6490 hc         1 F5Z       0.040700
     51 H17         -4.8540    -1.8820     0.0720 hc         1 F5Z       0.040700
     52 H18         -2.6320    -1.0620    -0.7500 hc         1 F5Z       0.041200
     53 H19         -2.3140    -0.3410     0.8260 hc         1 F5Z       0.041200
     54 H20         -2.4320    -2.6210     1.8860 hc         1 F5Z       0.053700
     55 H21         -2.7420    -3.3370     0.3130 hc         1 F5Z       0.053700
     56 H22         -0.9320    -3.5790    -1.3550 ha         1 F5Z       0.119500
     57 H23          1.4930    -3.5790    -1.8420 ha         1 F5Z       0.137500
     58 H24         -0.2010    -1.5550     2.3910 ha         1 F5Z       0.119500
     59 H25          2.2280    -1.5450     1.9210 ha         1 F5Z       0.137500
     60 H26          3.5700    -0.9590    -1.9140 hn         1 F5Z       0.494000
     61 H27          1.5900    -0.6260    -2.0620 ha         1 F5Z       0.112000
     62 H28         -0.7020     0.2980    -2.2410 ha         1 F5Z       0.125000
     63 H29         -1.3620     2.2390    -0.8110 h4         1 F5Z       0.021100
     64 H30          2.2710     3.3700     1.7450 ha         1 F5Z       0.136000
     65 H31          4.5830     2.5680     2.0320 ha         1 F5Z       0.123000
     66 H32          6.0490     0.3740     1.8570 hc         1 F5Z       0.062700
     67 H33          6.1050    -0.3970     0.2940 hc         1 F5Z       0.062700
     68 H34          6.6780     2.5540     0.8080 hc         1 F5Z       0.042700
     69 H35          8.6050     0.2790     0.1020 hc         1 F5Z       0.034200
     70 H36          9.0320     1.9950     0.2890 hc         1 F5Z       0.034200
     71 H37          8.4590     1.0690     1.6890 hc         1 F5Z       0.034200
     72 H38          5.7020     2.2720    -1.4550 hc         1 F5Z       0.034200
     73 H39          7.4290     2.6490    -1.5720 hc         1 F5Z       0.034200
     74 H40          6.8670     0.9810    -1.8200 hc         1 F5Z       0.034200
@<TRIPOS>BOND
     1     1     2 1   
     2     1     7 1   
     3     1    36 1   
     4     1    37 1   
     5     2     3 1   
     6     2    38 1   
     7     2    39 1   
     8     3     4 1   
     9     3     5 1   
    10     4    40 1   
    11     4    41 1   
    12     4    42 1   
    13     5     6 1   
    14     5    43 1   
    15     5    44 1   
    16     6     7 1   
    17     6    45 1   
    18     6    46 1   
    19     7     8 1   
    20     7    47 1   
    21     8     9 1   
    22     8    48 1   
    23     8    49 1   
    24     9    10 1   
    25     9    50 1   
    26     9    51 1   
    27    10    11 1   
    28    10    52 1   
    29    10    53 1   
    30    11    12 1   
    31    11    54 1   
    32    11    55 1   
    33    12    13 ar  
    34    12    15 ar  
    35    13    14 ar  
    36    13    56 1   
    37    14    17 ar  
    38    14    57 1   
    39    15    16 ar  
    40    15    58 1   
    41    16    17 ar  
    42    16    59 1   
    43    17    18 1   
    44    18    19 2   
    45    18    20 2   
    46    18    21 1   
    47    21    22 1   
    48    21    60 1   
    49    22    23 ar  
    50    22    31 ar  
    51    23    24 ar  
    52    23    28 ar  
    53    24    25 ar  
    54    24    61 1   
    55    25    26 ar  
    56    25    62 1   
    57    26    27 ar  
    58    26    63 1   
    59    27    28 ar  
    60    28    29 ar  
    61    29    30 ar  
    62    29    64 1   
    63    30    31 ar  
    64    30    65 1   
    65    31    32 1   
    66    32    33 1   
    67    32    66 1   
    68    32    67 1   
    69    33    34 1   
    70    33    35 1   
    71    33    68 1   
    72    34    69 1   
    73    34    70 1   
    74    34    71 1   
    75    35    72 1   
    76    35    73 1   
    77    35    74 1   
@<TRIPOS>SUBSTRUCTURE
     1 F5Z         1 TEMP              0 ****  ****    0 ROOT
