@<TRIPOS>MOLECULE
F5Z
   74    77     1     0     0
SMALL
abcg2


@<TRIPOS>ATOM
      1 CAS         -7.3550    -0.5570    -0.4410 c6         1 F5Z      -0.072900
      2 CAU         -8.8220    -0.2680    -0.1590 c6         1 F5Z       0.167300
      3 NBH         -9.1780     1.0900    -0.5220 n3         1 F5Z      -0.715600
      4 CAC        -10.5890     1.3320    -0.3270 c3         1 F5Z       0.153100
      5 CAV         -8.3710     2.0550     0.2000 c6         1 F5Z       0.167300
      6 CAT         -6.8890     1.8510    -0.0750 c6         1 F5Z      -0.072900
      7 CBG         -6.4430     0.4340     0.2750 c6         1 F5Z      -0.060700
      8 CAR         -4.9650     0.2270    -0.0490 c3         1 F5Z      -0.070400
      9 CAP         -4.3980    -1.1130     0.4070 c3         1 F5Z      -0.075400
     10 CAO         -2.8950    -1.2110     0.1860 c3         1 F5Z      -0.074400
     11 CAQ         -2.3130    -2.5490     0.6510 c3         1 F5Z      -0.042100
     12 CAZ         -0.8220    -2.5770     0.4960 ca         1 F5Z      -0.019300
     13 CAI         -0.2250    -3.0720    -0.6620 ca         1 F5Z      -0.131000
     14 CAK          1.1480    -3.0200    -0.8380 ca         1 F5Z      -0.011500
     15 CAH         -0.0040    -2.0460     1.4920 ca         1 F5Z      -0.131000
     16 CAJ          1.3690    -1.9870     1.3370 ca         1 F5Z      -0.011500
     17 CBB          1.9360    -2.4660     0.1620 ca         1 F5Z      -0.314500
     18 SBI          3.6660    -2.2480    -0.1060 sy         1 F5Z       1.157600
     19 OAD          4.3070    -2.1960     1.1960 o          1 F5Z      -0.531500
     20 OAE          4.1110    -3.1960    -1.1120 o          1 F5Z      -0.531500
     21 NAY          3.8590    -0.7500    -0.8020 nu         1 F5Z      -0.898100
     22 CBC          3.5520     0.4220    -0.0610 ca         1 F5Z       0.247000
     23 CBE          2.2420     0.9810    -0.1400 ca         1 F5Z      -0.092000
     24 CAM          1.2200     0.4710    -0.9700 ca         1 F5Z      -0.069000
     25 CAF         -0.0100     1.0620    -0.9650 ca         1 F5Z      -0.158000
     26 CAG         -0.2280     2.1710    -0.1260 ca         1 F5Z       0.348900
     27 NAX          0.6960     2.6880     0.6400 nb         1 F5Z      -0.654000
     28 CBD          1.9230     2.1190     0.6410 ca         1 F5Z       0.268000
     29 CAN          2.9240     2.6840     1.4620 ca         1 F5Z      -0.074000
     30 CAL          4.1780     2.1490     1.4810 ca         1 F5Z      -0.104000
     31 CBA          4.5270     1.0120     0.7120 ca         1 F5Z      -0.012300
     32 CAW          5.9610     0.5700     0.7390 c3         1 F5Z      -0.030100
     33 CBF          6.8720     1.5050    -0.0720 c3         1 F5Z      -0.056700
     34 CAB          8.3310     1.1220     0.1500 c3         1 F5Z      -0.087600
     35 CAA          6.5260     1.4800    -1.5570 c3         1 F5Z      -0.087600
     36 H1          -7.1360    -1.5830    -0.1380 hc         1 F5Z       0.045950
     37 H2          -7.1750    -0.5000    -1.5210 hc         1 F5Z       0.045950
     38 H3          -9.4500    -0.9570    -0.7300 h1         1 F5Z       0.029450
     39 H4          -9.0310    -0.4640     0.9090 h1         1 F5Z       0.029450
     40 H6         -10.9100     1.2160     0.7220 h1         1 F5Z       0.029700
     41 H7         -10.8420     2.3470    -0.6380 h1         1 F5Z       0.029700
     42 H8         -11.1770     0.6410    -0.9320 h1         1 F5Z       0.029700
     43 H9          -8.6720     3.0600    -0.1060 h1         1 F5Z       0.029450
     44 H10         -8.5490     1.9910     1.2900 h1         1 F5Z       0.029450
     45 H11         -6.6890     2.0440    -1.1340 hc         1 F5Z       0.045950
     46 H12         -6.3140     2.5840     0.4970 hc         1 F5Z       0.045950
     47 H13         -6.5760     0.2980     1.3580 hc         1 F5Z       0.043700
     48 H14         -4.8140     0.3410    -1.1290 hc         1 F5Z       0.038700
     49 H15         -4.3890     1.0310     0.4240 hc         1 F5Z       0.038700
     50 H16         -4.6170    -1.2570     1.4700 hc         1 F5Z       0.040700
     51 H17         -4.8940    -1.9330    -0.1200 hc         1 F5Z       0.040700
     52 H18         -2.6660    -1.0680    -0.8750 hc         1 F5Z       0.041200
     53 H19         -2.3920    -0.3950     0.7160 hc         1 F5Z       0.041200
     54 H20         -2.5760    -2.7120     1.6990 hc         1 F5Z       0.053700
     55 H21         -2.7680    -3.3620     0.0800 hc         1 F5Z       0.053700
     56 H22         -0.8390    -3.5070    -1.4410 ha         1 F5Z       0.119500
     57 H23          1.5890    -3.4010    -1.7490 ha         1 F5Z       0.137500
     58 H24         -0.4490    -1.6660     2.4040 ha         1 F5Z       0.119500
     59 H25          1.9810    -1.5630     2.1210 ha         1 F5Z       0.137500
     60 H26          3.6430    -0.7440    -1.7920 hn         1 F5Z       0.494000
     61 H27          1.3960    -0.3800    -1.6130 ha         1 F5Z       0.112000
     62 H28         -0.8110     0.6890    -1.5880 ha         1 F5Z       0.125000
     63 H29         -1.2040     2.6440    -0.1020 h4         1 F5Z       0.021100
     64 H30          2.6760     3.5490     2.0640 ha         1 F5Z       0.136000
     65 H31          4.9390     2.6010     2.1050 ha         1 F5Z       0.123000
     66 H32          6.3010     0.5600     1.7780 hc         1 F5Z       0.062700
     67 H33          6.0730    -0.4460     0.3650 hc         1 F5Z       0.062700
     68 H34          6.7310     2.5280     0.2960 hc         1 F5Z       0.042700
     69 H35          8.5220     0.1030    -0.1930 hc         1 F5Z       0.034200
     70 H36          9.0020     1.7870    -0.3960 hc         1 F5Z       0.034200
     71 H37          8.6010     1.1720     1.2070 hc         1 F5Z       0.034200
     72 H38          5.4910     1.7710    -1.7420 hc         1 F5Z       0.034200
     73 H39          7.1640     2.1670    -2.1150 hc         1 F5Z       0.034200
     74 H40          6.6700     0.4800    -1.9720 hc         1 F5Z       0.034200
@<TRIPOS>BOND
     1     1     2 1   
     2     1     7 1   
     3     1    36 1   
     4     1    37 1   
     5     2     3 1   
     6     2    38 1   
     7     2    39 1   
     8     3     4 1   
     9     3     5 1   
    10     4    40 1   
    11     4    41 1   
    12     4    42 1   
    13     5     6 1   
    14     5    43 1   
    15     5    44 1   
    16     6     7 1   
    17     6    45 1   
    18     6    46 1   
    19     7     8 1   
    20     7    47 1   
    21     8     9 1   
    22     8    48 1   
    23     8    49 1   
    24     9    10 1   
    25     9    50 1   
    26     9    51 1   
    27    10    11 1   
    28    10    52 1   
    29    10    53 1   
    30    11    12 1   
    31    11    54 1   
    32    11    55 1   
    33    12    13 ar  
    34    12    15 ar  
    35    13    14 ar  
    36    13    56 1   
    37    14    17 ar  
    38    14    57 1   
    39    15    16 ar  
    40    15    58 1   
    41    16    17 ar  
    42    16    59 1   
    43    17    18 1   
    44    18    19 2   
    45    18    20 2   
    46    18    21 1   
    47    21    22 1   
    48    21    60 1   
    49    22    23 ar  
    50    22    31 ar  
    51    23    24 ar  
    52    23    28 ar  
    53    24    25 ar  
    54    24    61 1   
    55    25    26 ar  
    56    25    62 1   
    57    26    27 ar  
    58    26    63 1   
    59    27    28 ar  
    60    28    29 ar  
    61    29    30 ar  
    62    29    64 1   
    63    30    31 ar  
    64    30    65 1   
    65    31    32 1   
    66    32    33 1   
    67    32    66 1   
    68    32    67 1   
    69    33    34 1   
    70    33    35 1   
    71    33    68 1   
    72    34    69 1   
    73    34    70 1   
    74    34    71 1   
    75    35    72 1   
    76    35    73 1   
    77    35    74 1   
@<TRIPOS>SUBSTRUCTURE
     1 F5Z         1 TEMP              0 ****  ****    0 ROOT
