@<TRIPOS>MOLECULE
F60
   17    18     1     0     0
SMALL
abcg2


@<TRIPOS>ATOM
      1 O01         -3.1300     0.4400     0.1960 oh         1 F60      -0.536100
      2 C02         -1.8220     0.0970     0.1370 ca         1 F60       0.159100
      3 C03         -0.8070     1.0370     0.1420 ca         1 F60      -0.238000
      4 C04          0.5050     0.5660     0.0700 ca         1 F60      -0.009200
      5 C05          0.8170    -0.8090    -0.0070 ca         1 F60      -0.134800
      6 C06          2.2450    -0.9060    -0.0710 cc         1 F60      -0.225200
      7 C07          2.7250     0.3690    -0.0300 cd         1 F60      -0.175100
      8 N08          1.6810     1.2520     0.0550 na         1 F60      -0.227700
      9 C09         -0.2350    -1.7310    -0.0060 ca         1 F60      -0.024000
     10 C10         -1.5360    -1.2810     0.0660 ca         1 F60      -0.168000
     11 H1          -3.2220     1.3990     0.2340 ho         1 F60       0.461000
     12 H2          -1.0200     2.0990     0.2010 ha         1 F60       0.112000
     13 H3           2.8350    -1.8060    -0.1410 ha         1 F60       0.204000
     14 H4           3.7420     0.7270    -0.0580 h4         1 F60       0.211000
     15 H5           1.7760     2.2530     0.0950 hn         1 F60       0.347000
     16 H6          -0.0360    -2.7940    -0.0620 ha         1 F60       0.117000
     17 H7          -2.3570    -1.9870     0.0650 ha         1 F60       0.126000
@<TRIPOS>BOND
     1     1     2 1   
     2     1    11 1   
     3     2     3 ar  
     4     2    10 ar  
     5     3     4 ar  
     6     3    12 1   
     7     4     5 ar  
     8     4     8 1   
     9     5     6 1   
    10     5     9 ar  
    11     6     7 2   
    12     6    13 1   
    13     7     8 1   
    14     7    14 1   
    15     8    15 1   
    16     9    10 ar  
    17     9    16 1   
    18    10    17 1   
@<TRIPOS>SUBSTRUCTURE
     1 F60         1 TEMP              0 ****  ****    0 ROOT
