@<TRIPOS>MOLECULE
F60
   17    18     1     0     0
SMALL
No Charge or Current Charge


@<TRIPOS>ATOM
      1 O01         -3.1440     0.4770     0.2040 oh         1 F60      -0.536100
      2 C02         -1.8480     0.0670     0.1350 ca         1 F60       0.159100
      3 C03         -0.8110     1.0210     0.1370 ca         1 F60      -0.238000
      4 C04          0.5090     0.5570     0.0650 ca         1 F60      -0.009200
      5 C05          0.7890    -0.7780    -0.0060 ca         1 F60      -0.134800
      6 C06          2.2130    -0.9090    -0.0670 cc         1 F60      -0.225200
      7 C07          2.7410     0.3760    -0.0300 cd         1 F60      -0.175100
      8 N08          1.6740     1.3060     0.0540 na         1 F60      -0.227700
      9 C09         -0.2160    -1.7540    -0.0110 ca         1 F60      -0.024000
     10 C10         -1.5540    -1.3130     0.0610 ca         1 F60      -0.168000
     11 H1          -3.1500     1.4570     0.2480 ho         1 F60       0.461000
     12 H2          -1.0210     2.0860     0.1940 ha         1 F60       0.112000
     13 H3           2.7890    -1.8310    -0.1310 ha         1 F60       0.204000
     14 H4           3.7810     0.6940    -0.0560 h4         1 F60       0.211000
     15 H5           1.7450     2.3190     0.0960 hn         1 F60       0.347000
     16 H6           0.0270    -2.8130    -0.0680 ha         1 F60       0.117000
     17 H7          -2.3630    -2.0390     0.0600 ha         1 F60       0.126000
@<TRIPOS>BOND
     1     1     2 1   
     2     1    11 1   
     3     2     3 ar  
     4     2    10 ar  
     5     3     4 ar  
     6     3    12 1   
     7     4     5 ar  
     8     4     8 1   
     9     5     6 1   
    10     5     9 ar  
    11     6     7 2   
    12     6    13 1   
    13     7     8 1   
    14     7    14 1   
    15     8    15 1   
    16     9    10 ar  
    17     9    16 1   
    18    10    17 1   
@<TRIPOS>SUBSTRUCTURE
     1 F60         1 TEMP              0 ****  ****    0 ROOT
