@<TRIPOS>MOLECULE
F61
  114   114     1     0     0
SMALL
No Charge or Current Charge


@<TRIPOS>ATOM
      1 C1           2.4970     2.8560     1.7220 c3         1 F61       0.143600
      2 C2           1.3770     1.8460     2.1140 c3         1 F61       0.090700
      3 C3           0.0560     2.1010     1.3060 c3         1 F61       0.128300
      4 C4          -1.0680     1.0100     1.4770 c3         1 F61       0.137300
      5 C5          -2.4100     1.3880     0.7850 c3         1 F61      -0.107400
      6 C6          -3.5620     0.3770     1.0110 c3         1 F61      -0.074400
      7 O3          -0.4530     3.4020     1.6770 oh         1 F61      -0.643000
      8 C18        -18.5590    -2.6590    -1.2000 c3         1 F61      -0.088100
      9 C17        -17.3990    -1.6710    -1.4270 c3         1 F61      -0.074400
     10 C16        -16.0600    -2.1620    -0.8350 c3         1 F61      -0.075400
     11 C15        -14.8970    -1.1720    -1.0640 c3         1 F61      -0.074400
     12 C14        -13.5580    -1.6640    -0.4710 c3         1 F61      -0.074400
     13 C13        -12.3950    -0.6750    -0.7060 c3         1 F61      -0.074400
     14 C12        -11.0560    -1.1650    -0.1100 c3         1 F61      -0.074400
     15 C11         -9.8920    -0.1780    -0.3480 c3         1 F61      -0.074400
     16 C10         -8.5550    -0.6630     0.2530 c3         1 F61      -0.074400
     17 C9          -7.3930     0.3260     0.0150 c3         1 F61      -0.074400
     18 C8          -6.0560    -0.1520     0.6240 c3         1 F61      -0.074400
     19 C7          -4.8980     0.8430     0.3910 c3         1 F61      -0.075400
     20 O4          -0.6330    -0.2470     0.9290 oh         1 F61      -0.652000
     21 O1A          2.9770     2.5170     0.4040 os         1 F61      -0.477000
     22 C1A          4.0060     3.3590    -0.1530 c6         1 F61       0.359300
     23 O6A          5.1910     3.3250     0.6750 os         1 F61      -0.448000
     24 C5M          5.8260     2.0210     0.7750 c6         1 F61       0.173300
     25 C6A          7.0190     2.1130     1.7830 c3         1 F61       0.169600
     26 O5A          6.6320     2.5730     3.0950 oh         1 F61      -0.712000
     27 C4A          6.2770     1.5060    -0.6330 c6         1 F61       0.147300
     28 O4A          7.3170     2.3150    -1.2200 oh         1 F61      -0.714000
     29 C3A          5.0450     1.5020    -1.5850 c6         1 F61       0.140300
     30 O3A          5.4450     1.1330    -2.9190 oh         1 F61      -0.674000
     31 C2A          4.3390     2.8950    -1.6110 c6         1 F61       0.115300
     32 O2A          3.1490     2.8240    -2.4350 oh         1 F61      -0.711000
     33 N2           1.8560     0.4590     1.9970 ns         1 F61      -0.495900
     34 CAA          2.8560    -0.1100     2.7460 c          1 F61       0.615100
     35 OAA          3.3850     0.4680     3.6850 o          1 F61      -0.612100
     36 CAB          3.2420    -1.5330     2.3310 c3         1 F61      -0.149400
     37 CAC          4.5630    -1.5270     1.5280 c3         1 F61      -0.062400
     38 CAD          5.0300    -2.9320     1.0950 c3         1 F61      -0.077400
     39 CAE          6.3420    -2.8960     0.2800 c3         1 F61      -0.074400
     40 CAF          6.8220    -4.2970    -0.1570 c3         1 F61      -0.074400
     41 CAG          8.1350    -4.2580    -0.9700 c3         1 F61      -0.074400
     42 CAH          8.6170    -5.6580    -1.4090 c3         1 F61      -0.074400
     43 CAI          9.9290    -5.6180    -2.2220 c3         1 F61      -0.075400
     44 CAJ         10.4130    -7.0170    -2.6600 c3         1 F61      -0.074400
     45 CAK         11.7220    -6.9770    -3.4720 c3         1 F61      -0.088100
     46 H1           2.1080     3.8820     1.7470 h1         1 F61       0.053200
     47 H2           3.3120     2.7950     2.4550 h1         1 F61       0.053200
     48 H3           1.1470     2.0110     3.1750 h1         1 F61       0.078700
     49 H4           0.3230     2.1100     0.2400 h1         1 F61       0.084700
     50 H5          -1.2620     0.8970     2.5530 h1         1 F61       0.075700
     51 H6          -2.7460     2.3630     1.1560 hc         1 F61       0.050200
     52 H7          -2.2390     1.5080    -0.2930 hc         1 F61       0.050200
     53 H8          -3.2960    -0.5960     0.5800 hc         1 F61       0.044200
     54 H9          -3.7010     0.2250     2.0890 hc         1 F61       0.044200
     55 H10         -0.8280     3.3320     2.5810 ho         1 F61       0.439000
     56 H11        -18.3410    -3.6280    -1.6670 hc         1 F61       0.031367
     57 H12        -18.7260    -2.8210    -0.1280 hc         1 F61       0.031367
     58 H13        -19.4850    -2.2690    -1.6370 hc         1 F61       0.031367
     59 H14        -17.2800    -1.5030    -2.5050 hc         1 F61       0.036200
     60 H15        -17.6620    -0.7040    -0.9800 hc         1 F61       0.036200
     61 H16        -16.1830    -2.3300     0.2430 hc         1 F61       0.036700
     62 H17        -15.8020    -3.1310    -1.2820 hc         1 F61       0.036700
     63 H18        -14.7740    -1.0050    -2.1420 hc         1 F61       0.036700
     64 H19        -15.1550    -0.2040    -0.6170 hc         1 F61       0.036700
     65 H20        -13.6800    -1.8270     0.6070 hc         1 F61       0.037200
     66 H21        -13.3020    -2.6330    -0.9160 hc         1 F61       0.037200
     67 H22        -12.2710    -0.5140    -1.7840 hc         1 F61       0.036700
     68 H23        -12.6520     0.2950    -0.2630 hc         1 F61       0.036700
     69 H24        -11.1790    -1.3240     0.9680 hc         1 F61       0.037700
     70 H25        -10.8000    -2.1370    -0.5510 hc         1 F61       0.037700
     71 H26         -9.7670    -0.0230    -1.4270 hc         1 F61       0.037200
     72 H27        -10.1510     0.7950     0.0870 hc         1 F61       0.037200
     73 H28         -8.6810    -0.8180     1.3320 hc         1 F61       0.037700
     74 H29         -8.2950    -1.6360    -0.1830 hc         1 F61       0.037700
     75 H30         -7.2630     0.4760    -1.0650 hc         1 F61       0.037200
     76 H31         -7.6560     1.3000     0.4450 hc         1 F61       0.037200
     77 H32         -6.1870    -0.3070     1.7020 hc         1 F61       0.038200
     78 H33         -5.7890    -1.1240     0.1900 hc         1 F61       0.038200
     79 H34         -5.1720     1.8170     0.8170 hc         1 F61       0.037200
     80 H35         -4.7620     0.9920    -0.6870 hc         1 F61       0.037200
     81 H36         -1.3860    -0.8710     1.0080 ho         1 F61       0.437000
     82 H37          3.6340     4.3940    -0.1950 h2         1 F61       0.069700
     83 H38          5.1000     1.3120     1.1950 h1         1 F61       0.053700
     84 H39          7.4770     1.1170     1.8570 h1         1 F61       0.035700
     85 H40          7.7770     2.7880     1.3620 h1         1 F61       0.035700
     86 H41          7.4590     2.6740     3.6210 ho         1 F61       0.505000
     87 H42          6.6290     0.4690    -0.5230 h1         1 F61       0.048700
     88 H43          7.2550     2.1200    -2.1860 ho         1 F61       0.521000
     89 H44          4.3260     0.7640    -1.1980 h1         1 F61       0.061700
     90 H45          4.6900     1.3960    -3.4960 ho         1 F61       0.469000
     91 H46          5.0380     3.6310    -2.0370 h1         1 F61       0.064700
     92 H47          2.4270     2.5190    -1.8350 ho         1 F61       0.512000
     93 H48          1.4120    -0.1270     1.2980 hn         1 F61       0.314500
     94 H49          3.3810    -2.1420     3.2320 hc         1 F61       0.054200
     95 H50          2.4570    -1.9660     1.6980 hc         1 F61       0.054200
     96 H51          4.4300    -0.9060     0.6330 hc         1 F61       0.056200
     97 H52          5.3510    -1.0560     2.1310 hc         1 F61       0.056200
     98 H53          5.1750    -3.5550     1.9870 hc         1 F61       0.032700
     99 H54          4.2440    -3.4060     0.4950 hc         1 F61       0.032700
    100 H55          6.1950    -2.2730    -0.6120 hc         1 F61       0.039700
    101 H56          7.1260    -2.4180     0.8790 hc         1 F61       0.039700
    102 H57          6.9690    -4.9220     0.7340 hc         1 F61       0.036200
    103 H58          6.0390    -4.7760    -0.7590 hc         1 F61       0.036200
    104 H59          7.9880    -3.6330    -1.8600 hc         1 F61       0.038200
    105 H60          8.9170    -3.7800    -0.3680 hc         1 F61       0.038200
    106 H61          8.7630    -6.2840    -0.5190 hc         1 F61       0.036200
    107 H62          7.8340    -6.1360    -2.0110 hc         1 F61       0.036200
    108 H63          9.7830    -4.9930    -3.1110 hc         1 F61       0.037200
    109 H64         10.7120    -5.1390    -1.6190 hc         1 F61       0.037200
    110 H65         10.5630    -7.6450    -1.7730 hc         1 F61       0.036200
    111 H66          9.6330    -7.4990    -3.2640 hc         1 F61       0.036200
    112 H67         12.0230    -7.9910    -3.7620 hc         1 F61       0.031367
    113 H68         11.5940    -6.3830    -4.3850 hc         1 F61       0.031367
    114 H69         12.5320    -6.5340    -2.8800 hc         1 F61       0.031367
@<TRIPOS>BOND
     1     1     2 1   
     2     1    21 1   
     3     1    46 1   
     4     1    47 1   
     5     2     3 1   
     6     2    33 1   
     7     2    48 1   
     8     3     4 1   
     9     3     7 1   
    10     3    49 1   
    11     4     5 1   
    12     4    20 1   
    13     4    50 1   
    14     5     6 1   
    15     5    51 1   
    16     5    52 1   
    17     6    19 1   
    18     6    53 1   
    19     6    54 1   
    20     7    55 1   
    21     8     9 1   
    22     8    56 1   
    23     8    57 1   
    24     8    58 1   
    25     9    10 1   
    26     9    59 1   
    27     9    60 1   
    28    10    11 1   
    29    10    61 1   
    30    10    62 1   
    31    11    12 1   
    32    11    63 1   
    33    11    64 1   
    34    12    13 1   
    35    12    65 1   
    36    12    66 1   
    37    13    14 1   
    38    13    67 1   
    39    13    68 1   
    40    14    15 1   
    41    14    69 1   
    42    14    70 1   
    43    15    16 1   
    44    15    71 1   
    45    15    72 1   
    46    16    17 1   
    47    16    73 1   
    48    16    74 1   
    49    17    18 1   
    50    17    75 1   
    51    17    76 1   
    52    18    19 1   
    53    18    77 1   
    54    18    78 1   
    55    19    79 1   
    56    19    80 1   
    57    20    81 1   
    58    21    22 1   
    59    22    23 1   
    60    22    31 1   
    61    22    82 1   
    62    23    24 1   
    63    24    25 1   
    64    24    27 1   
    65    24    83 1   
    66    25    26 1   
    67    25    84 1   
    68    25    85 1   
    69    26    86 1   
    70    27    28 1   
    71    27    29 1   
    72    27    87 1   
    73    28    88 1   
    74    29    30 1   
    75    29    31 1   
    76    29    89 1   
    77    30    90 1   
    78    31    32 1   
    79    31    91 1   
    80    32    92 1   
    81    33    34 1   
    82    33    93 1   
    83    34    35 2   
    84    34    36 1   
    85    36    37 1   
    86    36    94 1   
    87    36    95 1   
    88    37    38 1   
    89    37    96 1   
    90    37    97 1   
    91    38    39 1   
    92    38    98 1   
    93    38    99 1   
    94    39    40 1   
    95    39   100 1   
    96    39   101 1   
    97    40    41 1   
    98    40   102 1   
    99    40   103 1   
   100    41    42 1   
   101    41   104 1   
   102    41   105 1   
   103    42    43 1   
   104    42   106 1   
   105    42   107 1   
   106    43    44 1   
   107    43   108 1   
   108    43   109 1   
   109    44    45 1   
   110    44   110 1   
   111    44   111 1   
   112    45   112 1   
   113    45   113 1   
   114    45   114 1   
@<TRIPOS>SUBSTRUCTURE
     1 F61         1 TEMP              0 ****  ****    0 ROOT
