@<TRIPOS>MOLECULE
F61
  114   114     1     0     0
SMALL
abcg2


@<TRIPOS>ATOM
      1 C1           2.5330     3.1870     1.8300 c3         1 F61       0.143600
      2 C2           1.5510     2.0230     1.7600 c3         1 F61       0.090700
      3 C3           0.1800     2.4310     1.1840 c3         1 F61       0.128300
      4 C4          -0.8340     1.2650     1.1390 c3         1 F61       0.137300
      5 C5          -2.2690     1.7490     0.9380 c3         1 F61      -0.107400
      6 C6          -3.2920     0.6200     0.9510 c3         1 F61      -0.074400
      7 O3          -0.3110     3.5330     1.9130 oh         1 F61      -0.643000
      8 C18        -17.8630    -3.4570    -1.0210 c3         1 F61      -0.088100
      9 C17        -16.8370    -2.3360    -1.1050 c3         1 F61      -0.074400
     10 C16        -15.4540    -2.7570    -0.6240 c3         1 F61      -0.075400
     11 C15        -14.4190    -1.6420    -0.7120 c3         1 F61      -0.074400
     12 C14        -13.0330    -2.0640    -0.2420 c3         1 F61      -0.074400
     13 C13        -12.0000    -0.9470    -0.3370 c3         1 F61      -0.074400
     14 C12        -10.6080    -1.3700     0.1170 c3         1 F61      -0.074400
     15 C11         -9.5780    -0.2520     0.0210 c3         1 F61      -0.074400
     16 C10         -8.1800    -0.6820     0.4500 c3         1 F61      -0.074400
     17 C9          -7.1500     0.4370     0.3650 c3         1 F61      -0.074400
     18 C8          -5.7440    -0.0120     0.7400 c3         1 F61      -0.074400
     19 C7          -4.7110     1.1060     0.6790 c3         1 F61      -0.075400
     20 O4          -0.4750     0.3290     0.1410 oh         1 F61      -0.652000
     21 O1A          2.7470     3.6710     0.5200 os         1 F61      -0.477000
     22 C1A          3.9350     4.3650     0.3340 c6         1 F61       0.359300
     23 O6A          5.0570     3.5250     0.3710 os         1 F61      -0.448000
     24 C5M          5.0840     2.5330    -0.6420 c6         1 F61       0.173300
     25 C6A          6.2890     1.6500    -0.4030 c3         1 F61       0.169600
     26 O5A          6.1070     0.9700     0.8170 oh         1 F61      -0.712000
     27 C4A          5.0770     3.1550    -2.0310 c6         1 F61       0.147300
     28 O4A          6.2830     3.8510    -2.2340 oh         1 F61      -0.714000
     29 C3A          3.8660     4.0790    -2.1520 c6         1 F61       0.140300
     30 O3A          3.9320     4.7060    -3.4120 oh         1 F61      -0.674000
     31 C2A          3.8710     5.0900    -1.0140 c6         1 F61       0.115300
     32 O2A          2.7260     5.8960    -1.1410 oh         1 F61      -0.711000
     33 N2           2.1380     0.9320     1.0220 ns         1 F61      -0.495900
     34 CAA          2.8280    -0.0790     1.5780 c          1 F61       0.615100
     35 OAA          2.9930    -0.1880     2.7860 o          1 F61      -0.612100
     36 CAB          3.3670    -1.0820     0.5790 c3         1 F61      -0.149400
     37 CAC          4.3780    -2.0550     1.1620 c3         1 F61      -0.062400
     38 CAD          5.0740    -2.8680     0.0790 c3         1 F61      -0.077400
     39 CAE          6.0800    -3.8680     0.6350 c3         1 F61      -0.074400
     40 CAF          6.8240    -4.6370    -0.4480 c3         1 F61      -0.074400
     41 CAG          7.8320    -5.6360     0.1070 c3         1 F61      -0.074400
     42 CAH          8.5890    -6.3930    -0.9750 c3         1 F61      -0.074400
     43 CAI          9.5970    -7.3900    -0.4180 c3         1 F61      -0.075400
     44 CAJ         10.3600    -8.1480    -1.4960 c3         1 F61      -0.074400
     45 CAK         11.3640    -9.1410    -0.9250 c3         1 F61      -0.088100
     46 H1           2.1530     3.9860     2.4760 h1         1 F61       0.053200
     47 H2           3.4620     2.8140     2.2730 h1         1 F61       0.053200
     48 H3           1.3920     1.6780     2.7880 h1         1 F61       0.078700
     49 H4           0.3090     2.7980     0.1590 h1         1 F61       0.084700
     50 H5          -0.7810     0.7160     2.0880 h1         1 F61       0.075700
     51 H6          -2.5290     2.4690     1.7160 hc         1 F61       0.050200
     52 H7          -2.3300     2.2980    -0.0110 hc         1 F61       0.050200
     53 H8          -3.0320    -0.1380     0.2060 hc         1 F61       0.044200
     54 H9          -3.2600     0.1150     1.9230 hc         1 F61       0.044200
     55 H10         -0.4640     3.2610     2.8250 ho         1 F61       0.439000
     56 H11        -17.5550    -4.3180    -1.6180 hc         1 F61       0.031367
     57 H12        -17.9900    -3.8010     0.0070 hc         1 F61       0.031367
     58 H13        -18.8400    -3.1360    -1.3850 hc         1 F61       0.031367
     59 H14        -16.7660    -1.9820    -2.1390 hc         1 F61       0.036200
     60 H15        -17.1790    -1.4800    -0.5160 hc         1 F61       0.036200
     61 H16        -15.5220    -3.1090     0.4120 hc         1 F61       0.036700
     62 H17        -15.1120    -3.6170    -1.2120 hc         1 F61       0.036700
     63 H18        -14.3570    -1.2870    -1.7460 hc         1 F61       0.036700
     64 H19        -14.7580    -0.7840    -0.1190 hc         1 F61       0.036700
     65 H20        -13.0910    -2.4170     0.7930 hc         1 F61       0.037200
     66 H21        -12.6950    -2.9220    -0.8350 hc         1 F61       0.037200
     67 H22        -11.9490    -0.5890    -1.3710 hc         1 F61       0.036700
     68 H23        -12.3340    -0.0920     0.2610 hc         1 F61       0.036700
     69 H24        -10.6580    -1.7310     1.1500 hc         1 F61       0.037700
     70 H25        -10.2750    -2.2230    -0.4840 hc         1 F61       0.037700
     71 H26         -9.5400     0.1200    -1.0090 hc         1 F61       0.037200
     72 H27         -9.9030     0.5960     0.6350 hc         1 F61       0.037200
     73 H28         -8.2160    -1.0640     1.4760 hc         1 F61       0.037700
     74 H29         -7.8540    -1.5230    -0.1730 hc         1 F61       0.037700
     75 H30         -7.1380     0.8440    -0.6530 hc         1 F61       0.037200
     76 H31         -7.4570     1.2640     1.0150 hc         1 F61       0.037200
     77 H32         -5.7540    -0.4410     1.7480 hc         1 F61       0.038200
     78 H33         -5.4360    -0.8250     0.0710 hc         1 F61       0.038200
     79 H34         -4.9780     1.8880     1.3990 hc         1 F61       0.037200
     80 H35         -4.7440     1.5810    -0.3080 hc         1 F61       0.037200
     81 H36         -0.6830     0.7140    -0.7170 ho         1 F61       0.437000
     82 H37          4.0950     5.0920     1.1430 h2         1 F61       0.069700
     83 H38          4.1920     1.8980    -0.5760 h1         1 F61       0.053700
     84 H39          6.3670     0.9530    -1.2480 h1         1 F61       0.035700
     85 H40          7.2050     2.2530    -0.3960 h1         1 F61       0.035700
     86 H41          6.8450     0.3650     0.9320 ho         1 F61       0.505000
     87 H42          4.9660     2.3400    -2.7620 h1         1 F61       0.048700
     88 H43          6.2020     4.3520    -3.0530 ho         1 F61       0.521000
     89 H44          2.9610     3.4590    -2.0750 h1         1 F61       0.061700
     90 H45          3.2810     5.4160    -3.4320 ho         1 F61       0.469000
     91 H46          4.7850     5.6940    -1.0910 h1         1 F61       0.064700
     92 H47          2.8750     6.7220    -0.6720 ho         1 F61       0.512000
     93 H48          2.0420     0.9420     0.0210 hn         1 F61       0.314500
     94 H49          2.5190    -1.6250     0.1490 hc         1 F61       0.054200
     95 H50          3.8200    -0.5340    -0.2520 hc         1 F61       0.054200
     96 H51          5.1300    -1.5030     1.7310 hc         1 F61       0.056200
     97 H52          3.8860    -2.7270     1.8700 hc         1 F61       0.056200
     98 H53          4.3300    -3.3980    -0.5260 hc         1 F61       0.032700
     99 H54          5.5870    -2.1820    -0.6050 hc         1 F61       0.032700
    100 H55          6.8040    -3.3400     1.2660 hc         1 F61       0.039700
    101 H56          5.5640    -4.5740     1.2950 hc         1 F61       0.039700
    102 H57          6.1020    -5.1630    -1.0820 hc         1 F61       0.036200
    103 H58          7.3410    -3.9270    -1.1040 hc         1 F61       0.036200
    104 H59          8.5470    -5.1090     0.7490 hc         1 F61       0.038200
    105 H60          7.3140    -6.3510     0.7550 hc         1 F61       0.038200
    106 H61          7.8750    -6.9200    -1.6180 hc         1 F61       0.036200
    107 H62          9.1080    -5.6770    -1.6230 hc         1 F61       0.036200
    108 H63         10.3100    -6.8640     0.2270 hc         1 F61       0.037200
    109 H64          9.0790    -8.1070     0.2290 hc         1 F61       0.037200
    110 H65          9.6490    -8.6750    -2.1400 hc         1 F61       0.036200
    111 H66         10.8790    -7.4330    -2.1420 hc         1 F61       0.036200
    112 H67         11.8980    -9.6720    -1.7130 hc         1 F61       0.031367
    113 H68         12.1070    -8.6370    -0.3040 hc         1 F61       0.031367
    114 H69         10.8680    -9.8870    -0.3010 hc         1 F61       0.031367
@<TRIPOS>BOND
     1     1     2 1   
     2     1    21 1   
     3     1    46 1   
     4     1    47 1   
     5     2     3 1   
     6     2    33 1   
     7     2    48 1   
     8     3     4 1   
     9     3     7 1   
    10     3    49 1   
    11     4     5 1   
    12     4    20 1   
    13     4    50 1   
    14     5     6 1   
    15     5    51 1   
    16     5    52 1   
    17     6    19 1   
    18     6    53 1   
    19     6    54 1   
    20     7    55 1   
    21     8     9 1   
    22     8    56 1   
    23     8    57 1   
    24     8    58 1   
    25     9    10 1   
    26     9    59 1   
    27     9    60 1   
    28    10    11 1   
    29    10    61 1   
    30    10    62 1   
    31    11    12 1   
    32    11    63 1   
    33    11    64 1   
    34    12    13 1   
    35    12    65 1   
    36    12    66 1   
    37    13    14 1   
    38    13    67 1   
    39    13    68 1   
    40    14    15 1   
    41    14    69 1   
    42    14    70 1   
    43    15    16 1   
    44    15    71 1   
    45    15    72 1   
    46    16    17 1   
    47    16    73 1   
    48    16    74 1   
    49    17    18 1   
    50    17    75 1   
    51    17    76 1   
    52    18    19 1   
    53    18    77 1   
    54    18    78 1   
    55    19    79 1   
    56    19    80 1   
    57    20    81 1   
    58    21    22 1   
    59    22    23 1   
    60    22    31 1   
    61    22    82 1   
    62    23    24 1   
    63    24    25 1   
    64    24    27 1   
    65    24    83 1   
    66    25    26 1   
    67    25    84 1   
    68    25    85 1   
    69    26    86 1   
    70    27    28 1   
    71    27    29 1   
    72    27    87 1   
    73    28    88 1   
    74    29    30 1   
    75    29    31 1   
    76    29    89 1   
    77    30    90 1   
    78    31    32 1   
    79    31    91 1   
    80    32    92 1   
    81    33    34 1   
    82    33    93 1   
    83    34    35 2   
    84    34    36 1   
    85    36    37 1   
    86    36    94 1   
    87    36    95 1   
    88    37    38 1   
    89    37    96 1   
    90    37    97 1   
    91    38    39 1   
    92    38    98 1   
    93    38    99 1   
    94    39    40 1   
    95    39   100 1   
    96    39   101 1   
    97    40    41 1   
    98    40   102 1   
    99    40   103 1   
   100    41    42 1   
   101    41   104 1   
   102    41   105 1   
   103    42    43 1   
   104    42   106 1   
   105    42   107 1   
   106    43    44 1   
   107    43   108 1   
   108    43   109 1   
   109    44    45 1   
   110    44   110 1   
   111    44   111 1   
   112    45   112 1   
   113    45   113 1   
   114    45   114 1   
@<TRIPOS>SUBSTRUCTURE
     1 F61         1 TEMP              0 ****  ****    0 ROOT
