@<TRIPOS>MOLECULE
F62
   70    74     1     0     0
SMALL
No Charge or Current Charge


@<TRIPOS>ATOM
      1 C4          -2.6480     2.4740     0.2630 ca         1 F62       0.317900
      2 C5          -2.2160     3.6990    -0.2770 ca         1 F62      -0.299800
      3 C6          -0.8520     3.8110    -0.6190 ca         1 F62       0.195900
      4 N1           0.0130     2.8020    -0.4200 nb         1 F62      -0.248000
      5 N3          -1.7600     1.4860     0.5000 nb         1 F62      -0.296000
      6 CAR         -2.1610    -4.9040    -2.0340 c2         1 F62      -0.227000
      7 CAS         -3.1280    -4.3720    -1.2440 ce         1 F62      -0.304200
      8 CBE         -3.1770    -2.9390    -0.8190 c          1 F62       0.607300
      9 OAF         -2.3980    -2.1060    -1.2650 o          1 F62      -0.580100
     10 CBG         -4.5060    -1.4740     0.8140 ca         1 F62      -0.016000
     11 CAO         -4.1010    -0.1930     0.3780 ca         1 F62      -0.107000
     12 CAJ         -5.3180    -1.5810     1.9550 ca         1 F62      -0.164000
     13 CAI         -5.7050    -0.4330     2.6630 ca         1 F62      -0.080000
     14 CAK         -5.2760     0.8340     2.2370 ca         1 F62      -0.111000
     15 CBJ         -4.4590     0.9730     1.0960 ca         1 F62       0.078600
     16 NBS         -4.0250     2.2930     0.6680 n          1 F62      -0.299500
     17 CBM         -4.9620     3.3410     0.5070 c          1 F62       0.580200
     18 OAG         -6.1460     3.2200     0.7890 o          1 F62      -0.525000
     19 CAQ         -4.4530     4.5990    -0.0560 cc         1 F62      -0.327200
     20 CBF         -3.1550     4.8040    -0.4480 cd         1 F62       0.063600
     21 CAB         -2.7260     6.1300    -1.0300 c3         1 F62      -0.063900
     22 C2          -0.4890     1.6940     0.1440 ca         1 F62       0.429900
     23 NBB          0.3340     0.5970     0.3390 nu         1 F62      -0.912900
     24 CBK          1.7060     0.3160     0.1610 ca         1 F62       0.214000
     25 CBL          2.1150    -1.0360     0.0150 ca         1 F62       0.160100
     26 CAP          3.4800    -1.3510    -0.1600 ca         1 F62      -0.241000
     27 OBC          1.1390    -2.0240     0.0500 os         1 F62      -0.340100
     28 CAA          1.4390    -3.4180    -0.1340 c3         1 F62       0.149900
     29 CAM          2.6920     1.3250     0.1570 ca         1 F62      -0.029000
     30 CAL          4.0480     0.9990    -0.0160 ca         1 F62      -0.204000
     31 CBI          4.4500    -0.3380    -0.1820 ca         1 F62       0.339000
     32 NBR          5.8070    -0.6810    -0.3570 nh         1 F62      -0.793400
     33 CAV          6.9050     0.1790     0.1920 c6         1 F62       0.200300
     34 CAT          8.2490    -0.6010     0.3680 c6         1 F62       0.156800
     35 NBQ          8.6810    -1.3020    -0.8800 n3         1 F62      -0.714600
     36 CAC          9.9730    -2.0040    -0.7220 c3         1 F62       0.152100
     37 CAU          7.5890    -2.2040    -1.3570 c6         1 F62       0.156800
     38 CAW          6.2320    -1.4560    -1.5670 c6         1 F62       0.200300
     39 H1          -0.4360     4.7190    -1.0520 h4         1 F62       0.022100
     40 H2          -2.1560    -5.9620    -2.3020 ha         1 F62       0.177500
     41 H3          -1.3460    -4.2990    -2.4380 ha         1 F62       0.177500
     42 H5          -3.9140    -5.0110    -0.8420 ha         1 F62       0.176000
     43 H7          -4.6690    -3.4840     0.4380 hn         1 F62       0.150000
     44 H8          -3.5270    -0.0870    -0.5350 ha         1 F62       0.156000
     45 H9          -5.6480    -2.5580     2.3010 ha         1 F62       0.107000
     46 H10         -6.3310    -0.5250     3.5490 ha         1 F62       0.114000
     47 H11         -5.5660     1.7090     2.8130 ha         1 F62       0.124000
     48 H12         -5.2020     5.3750    -0.1600 ha         1 F62       0.208000
     49 H13         -3.5620     6.8370    -1.0960 hc         1 F62       0.051700
     50 H14         -1.9490     6.5960    -0.4130 hc         1 F62       0.051700
     51 H15         -2.3250     6.0020    -2.0420 hc         1 F62       0.051700
     52 H16         -0.2110    -0.2490     0.5100 hn         1 F62       0.523000
     53 H17          3.8060    -2.3790    -0.2650 ha         1 F62       0.121000
     54 H18          0.5190    -4.0140    -0.0820 h1         1 F62       0.042367
     55 H19          1.9010    -3.5910    -1.1140 h1         1 F62       0.042367
     56 H20          2.1210    -3.7770     0.6470 h1         1 F62       0.042367
     57 H21          2.4200     2.3650     0.3020 ha         1 F62       0.125000
     58 H22          4.7820     1.7990    -0.0270 ha         1 F62       0.119000
     59 H23          7.0810     1.0320    -0.4800 h1         1 F62       0.046200
     60 H24          6.6140     0.5880     1.1720 h1         1 F62       0.046200
     61 H25          9.0230     0.1080     0.6950 h1         1 F62       0.039950
     62 H26          8.1210    -1.3300     1.1830 h1         1 F62       0.039950
     63 H28          9.9010    -2.7930     0.0390 h1         1 F62       0.032033
     64 H29         10.2810    -2.4660    -1.6690 h1         1 F62       0.032033
     65 H30         10.7610    -1.3020    -0.4160 h1         1 F62       0.032033
     66 H31          7.8750    -2.6790    -2.3060 h1         1 F62       0.039950
     67 H32          7.4280    -3.0150    -0.6310 h1         1 F62       0.039950
     68 H33          5.4690    -2.1990    -1.8440 h1         1 F62       0.046200
     69 H34          6.3380    -0.7720    -2.4220 h1         1 F62       0.046200
     70 NBA         -4.1380    -2.6740     0.1470 ns         1 F62      -0.143000
@<TRIPOS>BOND
     1     1     2 ar  
     2     1     5 ar  
     3     1    16 1   
     4     2     3 ar  
     5     2    20 1   
     6     3     4 ar  
     7     3    39 1   
     8     4    22 ar  
     9     5    22 ar  
    10     6     7 2   
    11     6    40 1   
    12     6    41 1   
    13     7     8 1   
    14     7    42 1   
    15     8     9 2   
    16     8    70 1   
    17    10    11 ar  
    18    10    12 ar  
    19    10    70 1   
    20    11    15 ar  
    21    11    44 1   
    22    12    13 ar  
    23    12    45 1   
    24    13    14 ar  
    25    13    46 1   
    26    14    15 ar  
    27    14    47 1   
    28    15    16 1   
    29    16    17 1   
    30    17    18 2   
    31    17    19 1   
    32    19    20 2   
    33    19    48 1   
    34    20    21 1   
    35    21    49 1   
    36    21    50 1   
    37    21    51 1   
    38    22    23 1   
    39    23    24 1   
    40    23    52 1   
    41    24    25 ar  
    42    24    29 ar  
    43    25    26 ar  
    44    25    27 1   
    45    26    31 ar  
    46    26    53 1   
    47    27    28 1   
    48    28    54 1   
    49    28    55 1   
    50    28    56 1   
    51    29    30 ar  
    52    29    57 1   
    53    30    31 ar  
    54    30    58 1   
    55    31    32 1   
    56    32    33 1   
    57    32    38 1   
    58    33    34 1   
    59    33    59 1   
    60    33    60 1   
    61    34    35 1   
    62    34    61 1   
    63    34    62 1   
    64    35    36 1   
    65    35    37 1   
    66    36    63 1   
    67    36    64 1   
    68    36    65 1   
    69    37    38 1   
    70    37    66 1   
    71    37    67 1   
    72    38    68 1   
    73    38    69 1   
    74    43    70 1   
@<TRIPOS>SUBSTRUCTURE
     1 F62         1 TEMP              0 ****  ****    0 ROOT
