@<TRIPOS>MOLECULE
F62
   70    74     1     0     0
SMALL
bcc


@<TRIPOS>ATOM
      1 C4          -2.2620     2.0140     0.1840 ca         1 F62       0.646200
      2 C5          -1.7560     3.1330    -0.5030 ca         1 F62      -0.430400
      3 C6          -0.3780     3.1100    -0.7090 ca         1 F62       0.524200
      4 N1           0.4080     2.1390    -0.3030 nb         1 F62      -0.774000
      5 N3          -1.4920     1.0320     0.6090 nb         1 F62      -0.822000
      6 CAR         -5.4950    -4.9020    -2.4410 c2         1 F62      -0.127000
      7 CAS         -5.6870    -4.3410    -1.2530 ce         1 F62      -0.254200
      8 CBE         -5.1310    -3.0030    -0.9290 c          1 F62       0.674300
      9 OAF         -4.5190    -2.3260    -1.7380 o          1 F62      -0.580100
     10 CBG         -4.9860    -1.4530     1.0100 ca         1 F62       0.076600
     11 CAO         -4.4650    -0.3330     0.3630 ca         1 F62      -0.125000
     12 CAJ         -5.1580    -1.4180     2.3970 ca         1 F62      -0.182000
     13 CAI         -4.8110    -0.2920     3.1220 ca         1 F62      -0.098000
     14 CAK         -4.2860     0.8230     2.4850 ca         1 F62      -0.129000
     15 CBJ         -4.1260     0.7820     1.1120 ca         1 F62       0.078600
     16 NBS         -3.6070     1.9260     0.4290 n          1 F62      -0.366500
     17 CBM         -4.5170     2.9030     0.0210 c          1 F62       0.722700
     18 OAG         -5.7050     2.7600     0.2580 o          1 F62      -0.600500
     19 CAQ         -3.9620     4.0440    -0.6710 cc         1 F62      -0.277200
     20 CBF         -2.6420     4.1750    -0.9330 cd         1 F62       0.063600
     21 CAB         -2.0990     5.3680    -1.6490 c3         1 F62      -0.063900
     22 C2          -0.1880     1.1310     0.3500 ca         1 F62       0.955900
     23 NBB          0.5760     0.1160     0.7970 nu         1 F62      -0.719300
     24 CBK          1.9640    -0.0130     0.6020 ca         1 F62       0.075600
     25 CBL          2.4620    -1.1100    -0.1190 ca         1 F62       0.160100
     26 CAP          3.8280    -1.2650    -0.2970 ca         1 F62      -0.259000
     27 OBC          1.5400    -1.9710    -0.5830 os         1 F62      -0.316900
     28 CAA          1.9680    -3.0990    -1.3220 c3         1 F62       0.126700
     29 CAM          2.8650     0.9000     1.1160 ca         1 F62      -0.047000
     30 CAL          4.2320     0.7700     0.9160 ca         1 F62      -0.222000
     31 CBI          4.7410    -0.3240     0.2080 ca         1 F62       0.200600
     32 NBR          6.1050    -0.5250     0.0270 nh         1 F62      -0.655000
     33 CAV          7.0240     0.3820     0.6850 c6         1 F62       0.200300
     34 CAT          8.4260    -0.1990     0.7030 c6         1 F62       0.156800
     35 NBQ          8.8780    -0.5140    -0.6350 n3         1 F62      -0.714600
     36 CAC         10.2440    -0.9860    -0.6430 c3         1 F62       0.152100
     37 CAU          7.9720    -1.4640    -1.2440 c6         1 F62       0.156800
     38 CAW          6.5680    -0.8990    -1.3030 c6         1 F62       0.200300
     39 H1           0.1030     3.9270    -1.2380 h4         1 F62       0.022100
     40 H2          -5.9020    -5.8770    -2.6700 ha         1 F62       0.127500
     41 H3          -4.9260    -4.4110    -3.2200 ha         1 F62       0.127500
     42 H5          -6.2600    -4.8570    -0.4910 ha         1 F62       0.126000
     43 H7          -5.8530    -3.2930     0.9340 hn         1 F62       0.316500
     44 H8          -4.3240    -0.3160    -0.7050 ha         1 F62       0.174000
     45 H9          -5.5640    -2.2820     2.9090 ha         1 F62       0.125000
     46 H10         -4.9490    -0.2870     4.1950 ha         1 F62       0.132000
     47 H11         -4.0080     1.7060     3.0440 ha         1 F62       0.142000
     48 H12         -4.6690     4.8040    -0.9770 ha         1 F62       0.158000
     49 H13         -2.8950     6.0610    -1.9130 hc         1 F62       0.051700
     50 H14         -1.3750     5.8990    -1.0290 hc         1 F62       0.051700
     51 H15         -1.5840     5.0760    -2.5660 hc         1 F62       0.051700
     52 H16          0.0740    -0.6610     1.1980 hn         1 F62       0.467800
     53 H17          4.2040    -2.1380    -0.8120 ha         1 F62       0.139000
     54 H18          1.0690    -3.6450    -1.5970 h1         1 F62       0.042367
     55 H19          2.4970    -2.8110    -2.2330 h1         1 F62       0.042367
     56 H20          2.6120    -3.7550    -0.7310 h1         1 F62       0.042367
     57 H21          2.4940     1.7480     1.6750 ha         1 F62       0.143000
     58 H22          4.8820     1.5340     1.3170 ha         1 F62       0.137000
     59 H23          7.0420     1.3690     0.2000 h1         1 F62       0.046200
     60 H24          6.7100     0.5310     1.7190 h1         1 F62       0.046200
     61 H25          9.0990     0.5370     1.1480 h1         1 F62       0.039950
     62 H26          8.4380    -1.0890     1.3550 h1         1 F62       0.039950
     63 H28         10.3920    -1.9060    -0.0550 h1         1 F62       0.032033
     64 H29         10.5630    -1.1890    -1.6660 h1         1 F62       0.032033
     65 H30         10.9050    -0.2220    -0.2320 h1         1 F62       0.032033
     66 H31          8.3060    -1.6810    -2.2610 h1         1 F62       0.039950
     67 H32          7.9510    -2.4220    -0.6950 h1         1 F62       0.039950
     68 H33          5.9130    -1.6520    -1.7360 h1         1 F62       0.046200
     69 H34          6.5520    -0.0280    -1.9730 h1         1 F62       0.046200
     70 NBA         -5.3730    -2.6210     0.3540 ns         1 F62      -0.469100
@<TRIPOS>BOND
     1     1     2 ar  
     2     1     5 ar  
     3     1    16 1   
     4     2     3 ar  
     5     2    20 1   
     6     3     4 ar  
     7     3    39 1   
     8     4    22 ar  
     9     5    22 ar  
    10     6     7 2   
    11     6    40 1   
    12     6    41 1   
    13     7     8 1   
    14     7    42 1   
    15     8     9 2   
    16     8    70 1   
    17    10    11 ar  
    18    10    12 ar  
    19    10    70 1   
    20    11    15 ar  
    21    11    44 1   
    22    12    13 ar  
    23    12    45 1   
    24    13    14 ar  
    25    13    46 1   
    26    14    15 ar  
    27    14    47 1   
    28    15    16 1   
    29    16    17 1   
    30    17    18 2   
    31    17    19 1   
    32    19    20 2   
    33    19    48 1   
    34    20    21 1   
    35    21    49 1   
    36    21    50 1   
    37    21    51 1   
    38    22    23 1   
    39    23    24 1   
    40    23    52 1   
    41    24    25 ar  
    42    24    29 ar  
    43    25    26 ar  
    44    25    27 1   
    45    26    31 ar  
    46    26    53 1   
    47    27    28 1   
    48    28    54 1   
    49    28    55 1   
    50    28    56 1   
    51    29    30 ar  
    52    29    57 1   
    53    30    31 ar  
    54    30    58 1   
    55    31    32 1   
    56    32    33 1   
    57    32    38 1   
    58    33    34 1   
    59    33    59 1   
    60    33    60 1   
    61    34    35 1   
    62    34    61 1   
    63    34    62 1   
    64    35    36 1   
    65    35    37 1   
    66    36    63 1   
    67    36    64 1   
    68    36    65 1   
    69    37    38 1   
    70    37    66 1   
    71    37    67 1   
    72    38    68 1   
    73    38    69 1   
    74    43    70 1   
@<TRIPOS>SUBSTRUCTURE
     1 F62         1 TEMP              0 ****  ****    0 ROOT
