@<TRIPOS>MOLECULE
F63
   27    28     1     0     0
SMALL
No Charge or Current Charge


@<TRIPOS>ATOM
      1 O1          -1.0230     0.1270     1.2230 os         1 F63      -0.325400
      2 N2          -4.5870     0.3060     0.3160 nb         1 F63      -0.643000
      3 C3          -3.3990     0.4330     0.9620 ca         1 F63       0.328900
      4 C4          -2.1700    -0.0530     0.4540 ca         1 F63       0.070100
      5 C5          -2.1900    -0.7360    -0.7890 ca         1 F63      -0.127000
      6 C6          -3.4210    -0.8670    -1.4560 ca         1 F63      -0.136000
      7 C7          -4.5860    -0.3330    -0.8770 ca         1 F63       0.310900
      8 C8           0.1120     0.0330     0.4620 cc         1 F63       0.325300
      9 O9           1.1720    -0.7790     0.7640 os         1 F63      -0.237000
     10 C10          2.2020    -0.3340    -0.0410 cc         1 F63       0.138300
     11 C11          1.7990     0.7740    -0.7510 cd         1 F63      -0.177000
     12 C12          0.4570     1.0390    -0.3930 cd         1 F63      -0.175000
     13 C13          3.5310    -1.0520    -0.0070 c3         1 F63       0.128500
     14 N14          4.5250    -0.3350     0.8290 n7         1 F63      -0.846400
     15 C15          5.8550    -0.9730     0.9080 c3         1 F63       0.141100
     16 H5          -1.2970    -1.1690    -1.2330 ha         1 F63       0.133000
     17 H6          -3.4810    -1.3800    -2.4120 ha         1 F63       0.124000
     18 H7          -5.5480    -0.4260    -1.3790 h4         1 F63       0.023100
     19 H11          2.4150     1.3530    -1.4320 ha         1 F63       0.143000
     20 H12         -0.1650     1.8700    -0.7070 ha         1 F63       0.154000
     21 H13          3.3700    -2.0690     0.3770 h1         1 F63       0.048200
     22 H13A         3.8960    -1.1490    -1.0390 h1         1 F63       0.048200
     23 HN14         4.6460     0.6120     0.4460 hn         1 F63       0.412000
     24 H15          5.7790    -1.9860     1.3250 h1         1 F63       0.032367
     25 H15A         6.3160    -1.0440    -0.0870 h1         1 F63       0.032367
     26 H15B         6.5250    -0.3900     1.5530 h1         1 F63       0.032367
     27 H3          -3.4280     0.9490     1.9210 h4         1 F63       0.036100
@<TRIPOS>BOND
     1     1     4 1   
     2     1     8 1   
     3     2     3 ar  
     4     2     7 ar  
     5     3     4 ar  
     6     3    27 1   
     7     4     5 ar  
     8     5     6 ar  
     9     5    16 1   
    10     6     7 ar  
    11     6    17 1   
    12     7    18 1   
    13     8     9 1   
    14     8    12 2   
    15     9    10 1   
    16    10    11 2   
    17    10    13 1   
    18    11    12 1   
    19    11    19 1   
    20    12    20 1   
    21    13    14 1   
    22    13    21 1   
    23    13    22 1   
    24    14    15 1   
    25    14    23 1   
    26    15    24 1   
    27    15    25 1   
    28    15    26 1   
@<TRIPOS>SUBSTRUCTURE
     1 F63         1 TEMP              0 ****  ****    0 ROOT
