@<TRIPOS>MOLECULE
F63
   27    28     1     0     0
SMALL
bcc


@<TRIPOS>ATOM
      1 O1          -0.9680     1.0670     0.8010 os         1 F63      -0.325400
      2 N2          -3.9300    -0.9450     0.9170 nb         1 F63      -0.643000
      3 C3          -2.9450    -0.1200     1.2310 ca         1 F63       0.394200
      4 C4          -1.9050     0.1730     0.3560 ca         1 F63       0.004800
      5 C5          -1.8840    -0.4200    -0.8950 ca         1 F63      -0.145000
      6 C6          -2.9190    -1.2870    -1.2130 ca         1 F63      -0.219300
      7 C7          -3.9170    -1.5200    -0.2810 ca         1 F63       0.376200
      8 C8           0.2030     1.1510     0.1570 cc         1 F63       0.435000
      9 O9           1.0470     0.1190     0.3110 os         1 F63      -0.325800
     10 C10          2.1810     0.4220    -0.3770 cc         1 F63       0.248000
     11 C11          2.0470     1.6430    -0.9470 cd         1 F63      -0.260300
     12 C12          0.7420     2.1230    -0.6070 cd         1 F63      -0.258300
     13 C13          3.2800    -0.5730    -0.3780 c3         1 F63       0.128500
     14 N14          3.7600    -0.8490     0.9640 n7         1 F63      -0.791200
     15 C15          4.8150    -1.8430     0.9720 c3         1 F63       0.141100
     16 H5          -1.1020    -0.2190    -1.6160 ha         1 F63       0.151000
     17 H6          -2.9470    -1.7740    -2.1780 ha         1 F63       0.142000
     18 H7          -4.7360    -2.1920    -0.5080 h4         1 F63       0.023100
     19 H11          2.7880     2.1450    -1.5480 ha         1 F63       0.161000
     20 H12          0.2810     3.0550    -0.8910 ha         1 F63       0.172000
     21 H13          2.9290    -1.5150    -0.8130 h1         1 F63       0.048200
     22 H13A         4.0610    -0.1970    -1.0560 h1         1 F63       0.048200
     23 HN14         4.1140     0.0110     1.3650 hn         1 F63       0.356800
     24 H15          4.4210    -2.8050     0.6400 h1         1 F63       0.032367
     25 H15A         5.6700    -1.5970     0.3280 h1         1 F63       0.032367
     26 H15B         5.1880    -1.9730     1.9880 h1         1 F63       0.032367
     27 H3          -2.9690     0.3400     2.2140 h4         1 F63       0.036100
@<TRIPOS>BOND
     1     1     4 1   
     2     1     8 1   
     3     2     3 ar  
     4     2     7 ar  
     5     3     4 ar  
     6     3    27 1   
     7     4     5 ar  
     8     5     6 ar  
     9     5    16 1   
    10     6     7 ar  
    11     6    17 1   
    12     7    18 1   
    13     8     9 1   
    14     8    12 2   
    15     9    10 1   
    16    10    11 2   
    17    10    13 1   
    18    11    12 1   
    19    11    19 1   
    20    12    20 1   
    21    13    14 1   
    22    13    21 1   
    23    13    22 1   
    24    14    15 1   
    25    14    23 1   
    26    15    24 1   
    27    15    25 1   
    28    15    26 1   
@<TRIPOS>SUBSTRUCTURE
     1 F63         1 TEMP              0 ****  ****    0 ROOT
