@<TRIPOS>MOLECULE
F64
   64    66     1     0     0
SMALL
bcc


@<TRIPOS>ATOM
      1 C01         11.2040     2.5050    -1.5190 c3         1 F64       0.134700
      2 C03          9.5130     1.0540    -0.7540 ca         1 F64       0.674600
      3 C05          7.5670     1.9410     0.0370 ca         1 F64       0.472200
      4 C06          7.0170     0.7060     0.3140 ca         1 F64      -0.251600
      5 C07          5.6410     0.5780     0.8820 c3         1 F64       0.199700
      6 C09          3.4930    -0.1110     0.1330 ca         1 F64       0.150100
      7 C10          2.7050    -0.6170    -0.9050 ca         1 F64      -0.191000
      8 C11          1.3500    -0.8000    -0.7280 ca         1 F64      -0.077500
      9 C12          0.7200    -0.5000     0.4870 ca         1 F64      -0.091800
     10 C13          1.5210     0.0090     1.5060 ca         1 F64      -0.077500
     11 C14          2.8890     0.2000     1.3450 ca         1 F64      -0.191000
     12 C15         -0.7290    -0.6950     0.6820 ce         1 F64      -0.026400
     13 C16         -1.3870     0.0620     1.7950 c6         1 F64      -0.126200
     14 C17         -2.8970     0.0830     1.7930 c          1 F64       0.715500
     15 C21         -5.5230     0.2460     0.0100 c3         1 F64      -0.082400
     16 C22         -7.0480     0.3730    -0.1130 c3         1 F64      -0.193200
     17 C23         -7.7190     0.5720     1.2450 c3         1 F64      -0.096100
     18 C24         -7.3350     1.4750    -1.1450 c          1 F64       0.691100
     19 C32         -2.9180    -1.7160     0.0890 c6         1 F64       0.146200
     20 C33         -1.4550    -1.5230    -0.0670 c2         1 F64      -0.190200
     21 C34          7.7930    -0.4190     0.0220 ca         1 F64      -0.031000
     22 C35          9.0460    -0.2500    -0.5130 ca         1 F64      -0.129900
     23 N04          8.7830     2.1090    -0.4790 nb         1 F64      -0.757000
     24 N19         -3.5490    -0.7940     1.0100 n          1 F64      -0.473800
     25 N26         -8.1130     2.4750    -0.7170 ns         1 F64      -0.427400
     26 O02         10.7260     1.1870    -1.2700 os         1 F64      -0.418100
     27 O08          4.8030     0.0540    -0.1370 os         1 F64      -0.317900
     28 O18         -3.4910     0.8740     2.5160 o          1 F64      -0.649500
     29 O25         -6.8400     1.4370    -2.2560 o          1 F64      -0.585100
     30 O27         -8.5050     3.4360    -1.5940 oh         1 F64      -0.372100
     31 S28         -7.8290    -1.1400    -0.8200 s6         1 F64       0.980000
     32 CL          10.0470    -1.6010    -0.8880 cl         1 F64      -0.071400
     33 H1          11.2520     3.0940    -0.6030 h1         1 F64       0.051367
     34 H2          12.2040     2.3840    -1.9250 h1         1 F64       0.051367
     35 H3          10.5780     3.0270    -2.2430 h1         1 F64       0.051367
     36 H4           7.0080     2.8470     0.2430 h4         1 F64       0.024100
     37 H5           5.6410    -0.0870     1.7520 h1         1 F64       0.044200
     38 H6           5.2830     1.5590     1.2130 h1         1 F64       0.044200
     39 H7           3.1640    -0.8510    -1.8580 ha         1 F64       0.142500
     40 H8           0.7720    -1.1670    -1.5670 ha         1 F64       0.132000
     41 H9           1.0930     0.2650     2.4660 ha         1 F64       0.132000
     42 H10          3.4530     0.5970     2.1780 ha         1 F64       0.142500
     43 H11         -1.0830    -0.3490     2.7650 hc         1 F64       0.084200
     44 H12         -1.0580     1.1040     1.8050 hc         1 F64       0.084200
     45 H13         -5.3620    -0.5950     2.0070 h1         1 F64       0.070200
     46 H14         -5.3280    -1.8010     0.7390 h1         1 F64       0.070200
     47 H15         -5.1620     1.2270     0.3300 hc         1 F64       0.070200
     48 H16         -5.0850     0.0660    -0.9730 hc         1 F64       0.070200
     49 H17         -7.3170     1.4660     1.7240 hc         1 F64       0.064033
     50 H18         -8.8020     0.6730     1.1680 hc         1 F64       0.064033
     51 H19         -7.5270    -0.2640     1.9120 hc         1 F64       0.064033
     52 H20         -7.3250    -2.5900    -2.5610 h1         1 F64       0.111033
     53 H21         -6.7780    -0.9330    -2.9510 h1         1 F64       0.111033
     54 H22         -5.8330    -1.9560    -1.8340 h1         1 F64       0.111033
     55 H23         -3.3920    -1.6080    -0.8940 h1         1 F64       0.048200
     56 H24         -3.1250    -2.7460     0.4040 h1         1 F64       0.048200
     57 H25         -1.0010    -2.1260    -0.8440 ha         1 F64       0.139000
     58 H26          7.4190    -1.4150     0.2200 ha         1 F64       0.158000
     59 H27         -8.6140     2.4720     0.1590 hn         1 F64       0.351500
     60 H28         -7.8970     4.1780    -1.4700 ho         1 F64       0.406000
     61 C20         -5.0000    -0.7950     1.0010 c3         1 F64       0.092000
     62 C29         -6.8290    -1.6960    -2.1830 c3         1 F64      -0.207300
     63 O30         -7.7950    -2.1860     0.2030 o          1 F64      -0.581800
     64 O31         -9.1370    -0.7270    -1.3290 o          1 F64      -0.581800
@<TRIPOS>BOND
     1     1    26 1   
     2     1    33 1   
     3     1    34 1   
     4     1    35 1   
     5     2    22 ar  
     6     2    23 ar  
     7     2    26 1   
     8     3     4 ar  
     9     3    23 ar  
    10     3    36 1   
    11     4     5 1   
    12     4    21 ar  
    13     5    27 1   
    14     5    37 1   
    15     5    38 1   
    16     6     7 ar  
    17     6    11 ar  
    18     6    27 1   
    19     7     8 ar  
    20     7    39 1   
    21     8     9 ar  
    22     8    40 1   
    23     9    10 ar  
    24     9    12 1   
    25    10    11 ar  
    26    10    41 1   
    27    11    42 1   
    28    12    13 1   
    29    12    20 2   
    30    13    14 1   
    31    13    43 1   
    32    13    44 1   
    33    14    24 1   
    34    14    28 2   
    35    15    16 1   
    36    15    47 1   
    37    15    48 1   
    38    15    61 1   
    39    16    17 1   
    40    16    18 1   
    41    16    31 1   
    42    17    49 1   
    43    17    50 1   
    44    17    51 1   
    45    18    25 1   
    46    18    29 2   
    47    19    20 1   
    48    19    24 1   
    49    19    55 1   
    50    19    56 1   
    51    20    57 1   
    52    21    22 ar  
    53    21    58 1   
    54    22    32 1   
    55    24    61 1   
    56    25    30 1   
    57    25    59 1   
    58    30    60 1   
    59    31    62 1   
    60    31    63 2   
    61    31    64 2   
    62    45    61 1   
    63    46    61 1   
    64    52    62 1   
    65    53    62 1   
    66    54    62 1   
@<TRIPOS>SUBSTRUCTURE
     1 F64         1 TEMP              0 ****  ****    0 ROOT
