@<TRIPOS>MOLECULE
F64
   64    66     1     0     0
SMALL
No Charge or Current Charge


@<TRIPOS>ATOM
      1 C01         10.8580     3.2160    -1.6530 c3         1 F64       0.157900
      2 C03          9.2380     1.4440    -1.1120 ca         1 F64       0.609300
      3 C05          7.4190     1.9140     0.2500 ca         1 F64       0.406900
      4 C06          6.9470     0.5930     0.1650 ca         1 F64      -0.186300
      5 C07          5.6760     0.1870     0.8870 c3         1 F64       0.222900
      6 C09          3.3060    -0.1220     0.2840 ca         1 F64       0.150100
      7 C10          2.3260    -0.0710    -0.7180 ca         1 F64      -0.173000
      8 C11          0.9900    -0.3960    -0.4270 ca         1 F64      -0.059500
      9 C12          0.6170    -0.7760     0.8770 ca         1 F64      -0.091800
     10 C13          1.6030    -0.8270     1.8840 ca         1 F64      -0.059500
     11 C14          2.9400    -0.5030     1.5930 ca         1 F64      -0.173000
     12 C15         -0.8010    -1.1210     1.1850 ce         1 F64      -0.026400
     13 C16         -1.4110    -0.6760     2.5130 c6         1 F64      -0.126200
     14 C17         -2.8370    -0.1730     2.2640 c          1 F64       0.573000
     15 C21         -5.2940     0.1410    -0.0610 c3         1 F64      -0.082400
     16 C22         -6.7690     0.5780    -0.4090 c3         1 F64      -0.304000
     17 C23         -7.3460     1.4570     0.7610 c3         1 F64      -0.096100
     18 C24         -6.7470     1.3350    -1.7590 c          1 F64       0.624100
     19 C32         -3.0520    -2.1180     0.6980 c6         1 F64       0.146200
     20 C33         -1.6040    -1.8070     0.3420 c2         1 F64      -0.240200
     21 C34          7.6670    -0.3360    -0.6060 ca         1 F64      -0.013000
     22 C35          8.8330     0.0950    -1.2560 ca         1 F64       0.027000
     23 N04          8.5430     2.3410    -0.3700 nb         1 F64      -0.757000
     24 N19         -3.6570    -1.0100     1.4780 n          1 F64      -0.406800
     25 N26         -7.3310     2.5990    -1.7880 ns         1 F64      -0.360400
     26 O02         10.3880     1.8570    -1.7560 os         1 F64      -0.441300
     27 O08          4.5990     0.2080    -0.0630 os         1 F64      -0.341100
     28 O18         -3.1970     0.9410     2.6230 o          1 F64      -0.574000
     29 O25         -6.1790     0.8870    -2.7460 o          1 F64      -0.585100
     30 O27         -7.5600     3.2880    -3.0430 oh         1 F64      -0.411100
     31 S28         -7.8980    -0.8390    -0.6770 s6         1 F64       1.060000
     32 Cl           9.7580    -1.0530    -2.2320 cl         1 F64      -0.163000
     33 H1          11.0740     3.4790    -0.6100 h1         1 F64       0.051367
     34 H2          11.7810     3.3440    -2.2330 h1         1 F64       0.051367
     35 H3          10.1120     3.9200    -2.0440 h1         1 F64       0.051367
     36 H4           6.8830     2.6600     0.8360 h4         1 F64       0.024100
     37 H5           5.8010    -0.8190     1.3090 h1         1 F64       0.044200
     38 H6           5.4780     0.8840     1.7120 h1         1 F64       0.044200
     39 H7           2.6030     0.2230    -1.7270 ha         1 F64       0.124500
     40 H8           0.2430    -0.3420    -1.2160 ha         1 F64       0.114000
     41 H9           1.3380    -1.1290     2.8950 ha         1 F64       0.114000
     42 H10          3.6730    -0.5560     2.3920 ha         1 F64       0.124500
     43 H11         -1.4860    -1.5830     3.1270 hc         1 F64       0.084200
     44 H12         -0.8210     0.0900     3.0310 hc         1 F64       0.084200
     45 H13         -5.4570    -0.1120     2.1050 h1         1 F64       0.070200
     46 H14         -5.6410    -1.6140     1.1950 h1         1 F64       0.070200
     47 H15         -4.6780     1.0470     0.0120 hc         1 F64       0.070200
     48 H16         -4.8660    -0.4270    -0.8960 hc         1 F64       0.070200
     49 H17         -6.7230     2.3440     0.9360 hc         1 F64       0.064033
     50 H18         -8.3720     1.7900     0.5550 hc         1 F64       0.064033
     51 H19         -7.3890     0.8990     1.7040 hc         1 F64       0.064033
     52 H20         -7.7250    -2.8620    -1.8830 h1         1 F64       0.111033
     53 H21         -6.8040    -1.5360    -2.6760 h1         1 F64       0.111033
     54 H22         -6.1390    -2.3510    -1.2040 h1         1 F64       0.111033
     55 H23         -3.6290    -2.2930    -0.2210 h1         1 F64       0.048200
     56 H24         -3.0950    -3.0400     1.2950 h1         1 F64       0.048200
     57 H25         -1.2480    -2.1690    -0.6240 ha         1 F64       0.189000
     58 H26          7.3310    -1.3660    -0.7020 ha         1 F64       0.140000
     59 H27         -7.8980     2.9060    -1.0000 hn         1 F64       0.351500
     60 H28         -7.1710     4.1810    -2.8910 ho         1 F64       0.445000
     61 C20         -5.0780    -0.6740     1.2430 c3         1 F64       0.092000
     62 C29         -7.0420    -2.0200    -1.7250 c3         1 F64      -0.318100
     63 O30         -8.1130    -1.4990     0.6160 o          1 F64      -0.511000
     64 O31         -9.0660    -0.3520    -1.4210 o          1 F64      -0.511000
@<TRIPOS>BOND
     1     1    26 1   
     2     1    33 1   
     3     1    34 1   
     4     1    35 1   
     5     2    22 ar  
     6     2    23 ar  
     7     2    26 1   
     8     3     4 ar  
     9     3    23 ar  
    10     3    36 1   
    11     4     5 1   
    12     4    21 ar  
    13     5    27 1   
    14     5    37 1   
    15     5    38 1   
    16     6     7 ar  
    17     6    11 ar  
    18     6    27 1   
    19     7     8 ar  
    20     7    39 1   
    21     8     9 ar  
    22     8    40 1   
    23     9    10 ar  
    24     9    12 1   
    25    10    11 ar  
    26    10    41 1   
    27    11    42 1   
    28    12    13 1   
    29    12    20 2   
    30    13    14 1   
    31    13    43 1   
    32    13    44 1   
    33    14    24 1   
    34    14    28 2   
    35    15    16 1   
    36    15    47 1   
    37    15    48 1   
    38    15    61 1   
    39    16    17 1   
    40    16    18 1   
    41    16    31 1   
    42    17    49 1   
    43    17    50 1   
    44    17    51 1   
    45    18    25 1   
    46    18    29 2   
    47    19    20 1   
    48    19    24 1   
    49    19    55 1   
    50    19    56 1   
    51    20    57 1   
    52    21    22 ar  
    53    21    58 1   
    54    22    32 1   
    55    24    61 1   
    56    25    30 1   
    57    25    59 1   
    58    30    60 1   
    59    31    62 1   
    60    31    63 2   
    61    31    64 2   
    62    45    61 1   
    63    46    61 1   
    64    52    62 1   
    65    53    62 1   
    66    54    62 1   
@<TRIPOS>SUBSTRUCTURE
     1 F64         1 TEMP              0 ****  ****    0 ROOT
