@<TRIPOS>MOLECULE
F65
   81    84     1     0     0
SMALL
No Charge or Current Charge


@<TRIPOS>ATOM
      1 C4          -4.1020    -2.5260    -1.7430 ca         1 F65      -0.050000
      2 C14         -1.4360     0.2860     1.8990 ca         1 F65      -0.314500
      3 C5          -3.9380    -1.1410    -1.9210 ca         1 F65      -0.159000
      4 C6          -3.9680    -0.2700    -0.8210 ca         1 F65       0.266000
      5 C11         -2.1220     3.0760    -1.1350 c3         1 F65      -0.078900
      6 C7          -4.9890     2.0030    -1.0680 c3         1 F65       0.198300
      7 C8          -5.0690     3.0180    -2.2300 c3         1 F65      -0.078900
      8 C9          -4.2430     4.3040    -2.0070 c3         1 F65      -0.066900
      9 C10         -2.7160     4.1220    -2.1030 c3         1 F65      -0.066900
     10 C12         -2.4750     1.6150    -1.4880 c3         1 F65       0.198300
     11 C13         -4.1540    -0.7990     0.4840 ca         1 F65       0.248000
     12 N1          -3.7950     1.1250    -1.0300 nh         1 F65      -0.806400
     13 N2          -4.1450     0.0710     1.5780 nu         1 F65      -0.887100
     14 C3          -4.3030    -3.0630    -0.4510 ca         1 F65      -0.141600
     15 N3          10.2060     0.1260    -0.8390 n3         1 F65      -0.714600
     16 O2          -4.6670    -5.0380     0.8740 o          1 F65      -0.477000
     17 C2          -4.4890    -4.5470    -0.2340 c          1 F65       0.604700
     18 O1          -4.4390    -5.2870    -1.3890 os         1 F65      -0.444100
     19 C1          -4.6050    -6.7140    -1.2910 c3         1 F65       0.154900
     20 C30         -4.3270    -2.1840     0.6560 ca         1 F65      -0.067000
     21 S           -2.9850     0.0910     2.7840 sy         1 F65       1.161600
     22 O4          -3.0650    -1.2430     3.3840 o          1 F65      -0.530000
     23 O3          -3.3010     1.3120     3.5280 o          1 F65      -0.530000
     24 C15         -0.8310     1.5550     1.7910 ca         1 F65      -0.011500
     25 C16          0.3610     1.7040     1.0630 ca         1 F65      -0.133000
     26 C17          0.9560     0.5950     0.4320 ca         1 F65      -0.020300
     27 C28          0.3530    -0.6710     0.5470 ca         1 F65      -0.133000
     28 C29         -0.8380    -0.8280     1.2770 ca         1 F65      -0.011500
     29 C18          2.2430     0.7650    -0.3630 c3         1 F65      -0.043100
     30 C19          3.4970     0.6290     0.5260 c3         1 F65      -0.072400
     31 C20          4.8170     0.7980    -0.2570 c3         1 F65      -0.075400
     32 C21          6.0720     0.6570     0.6370 c3         1 F65      -0.069400
     33 C22          7.4350     0.9170    -0.0760 c6         1 F65      -0.060700
     34 C23          7.7300    -0.0980    -1.2160 c6         1 F65      -0.072900
     35 C24          9.1180     0.1560    -1.8540 c6         1 F65       0.167300
     36 C26          9.9690     1.1260     0.2370 c6         1 F65       0.167300
     37 C27          8.6090     0.8960     0.9390 c6         1 F65      -0.072900
     38 H1          -4.0760    -3.1720    -2.6180 ha         1 F65       0.132000
     39 H2          -3.7910    -0.7400    -2.9190 ha         1 F65       0.119000
     40 H3          -1.0300     3.1720    -1.1750 hc         1 F65       0.040950
     41 H4          -2.4160     3.2980    -0.1030 hc         1 F65       0.040950
     42 H5          -5.0800     2.5430    -0.1160 h1         1 F65       0.038450
     43 H6          -5.8790     1.3630    -1.1440 h1         1 F65       0.038450
     44 H7          -4.7840     2.5360    -3.1730 hc         1 F65       0.040950
     45 H8          -6.1190     3.3130    -2.3390 hc         1 F65       0.040950
     46 H9          -4.5470     5.0470    -2.7540 hc         1 F65       0.042950
     47 H10         -4.4960     4.7310    -1.0280 hc         1 F65       0.042950
     48 H11         -2.2410     5.0910    -1.9040 hc         1 F65       0.042950
     49 H12         -2.4480     3.8540    -3.1330 hc         1 F65       0.042950
     50 H13         -2.3860     1.4790    -2.5740 h1         1 F65       0.038450
     51 H14         -1.7030     0.9820    -1.0300 h1         1 F65       0.038450
     52 H15         -4.0780     1.0240     1.2400 hn         1 F65       0.517000
     53 H17         -5.5830    -6.9660    -0.8600 h1         1 F65       0.049367
     54 H18         -4.5430    -7.1740    -2.2850 h1         1 F65       0.049367
     55 H19         -3.8220    -7.1570    -0.6620 h1         1 F65       0.049367
     56 H20         -4.4860    -2.5750     1.6570 ha         1 F65       0.171000
     57 H21         -1.2810     2.4290     2.2600 ha         1 F65       0.138500
     58 H22          0.8210     2.6860     0.9830 ha         1 F65       0.119000
     59 H23          0.8050    -1.5350     0.0680 ha         1 F65       0.119000
     60 H24         -1.2950    -1.8140     1.3480 ha         1 F65       0.138500
     61 H25          2.2880     0.0210    -1.1680 hc         1 F65       0.050200
     62 H26          2.2530     1.7460    -0.8540 hc         1 F65       0.050200
     63 H27          3.4510     1.3790     1.3260 hc         1 F65       0.046200
     64 H28          3.4870    -0.3550     1.0110 hc         1 F65       0.046200
     65 H29          4.8490     0.0480    -1.0560 hc         1 F65       0.037700
     66 H30          4.8270     1.7830    -0.7390 hc         1 F65       0.037700
     67 H31          5.9700     1.3600     1.4740 hc         1 F65       0.041200
     68 H32          6.0740    -0.3450     1.0820 hc         1 F65       0.041200
     69 H33          7.3750     1.9250    -0.5120 hc         1 F65       0.041700
     70 H34          7.6900    -1.1240    -0.8250 hc         1 F65       0.046450
     71 H35          6.9650    -0.0300    -2.0000 hc         1 F65       0.046450
     72 H36          9.1040     1.1300    -2.3660 h1         1 F65       0.028700
     73 H37          9.2960    -0.6100    -2.6230 h1         1 F65       0.028700
     74 H38         11.6540     1.2370    -1.9440 h1         1 F65       0.029367
     75 H39         12.3300     0.1770    -0.6840 h1         1 F65       0.029367
     76 H40         11.7150    -0.5240    -2.1950 h1         1 F65       0.029367
     77 H41         10.7680     1.0690     0.9910 h1         1 F65       0.028700
     78 H42          9.9910     2.1450    -0.1790 h1         1 F65       0.028700
     79 H43          8.4600     1.6690     1.7050 hc         1 F65       0.046450
     80 H44          8.6310    -0.0670     1.4670 hc         1 F65       0.046450
     81 C25         11.5460     0.2630    -1.4480 c3         1 F65       0.153100
@<TRIPOS>BOND
     1     1     3 ar  
     2     1    14 ar  
     3     1    38 1   
     4     2    21 1   
     5     2    24 ar  
     6     2    28 ar  
     7     3     4 ar  
     8     3    39 1   
     9     4    11 ar  
    10     4    12 1   
    11     5     9 1   
    12     5    10 1   
    13     5    40 1   
    14     5    41 1   
    15     6     7 1   
    16     6    12 1   
    17     6    42 1   
    18     6    43 1   
    19     7     8 1   
    20     7    44 1   
    21     7    45 1   
    22     8     9 1   
    23     8    46 1   
    24     8    47 1   
    25     9    48 1   
    26     9    49 1   
    27    10    12 1   
    28    10    50 1   
    29    10    51 1   
    30    11    13 1   
    31    11    20 ar  
    32    13    21 1   
    33    13    52 1   
    34    14    17 1   
    35    14    20 ar  
    36    15    35 1   
    37    15    36 1   
    38    15    81 1   
    39    16    17 2   
    40    17    18 1   
    41    18    19 1   
    42    19    53 1   
    43    19    54 1   
    44    19    55 1   
    45    20    56 1   
    46    21    22 2   
    47    21    23 2   
    48    24    25 ar  
    49    24    57 1   
    50    25    26 ar  
    51    25    58 1   
    52    26    27 ar  
    53    26    29 1   
    54    27    28 ar  
    55    27    59 1   
    56    28    60 1   
    57    29    30 1   
    58    29    61 1   
    59    29    62 1   
    60    30    31 1   
    61    30    63 1   
    62    30    64 1   
    63    31    32 1   
    64    31    65 1   
    65    31    66 1   
    66    32    33 1   
    67    32    67 1   
    68    32    68 1   
    69    33    34 1   
    70    33    37 1   
    71    33    69 1   
    72    34    35 1   
    73    34    70 1   
    74    34    71 1   
    75    35    72 1   
    76    35    73 1   
    77    36    37 1   
    78    36    77 1   
    79    36    78 1   
    80    37    79 1   
    81    37    80 1   
    82    74    81 1   
    83    75    81 1   
    84    76    81 1   
@<TRIPOS>SUBSTRUCTURE
     1 F65         1 TEMP              0 ****  ****    0 ROOT
