@<TRIPOS>MOLECULE
F65
   81    84     1     0     0
SMALL
abcg2


@<TRIPOS>ATOM
      1 C4          -4.1590    -2.4880    -1.7570 ca         1 F65      -0.050000
      2 C14         -1.2640     0.5250     1.7740 ca         1 F65      -0.314500
      3 C5          -4.1680    -1.1380    -2.0560 ca         1 F65      -0.159000
      4 C6          -4.0510    -0.1620    -1.0650 ca         1 F65       0.266000
      5 C11         -2.8970     3.2250    -0.4210 c3         1 F65      -0.078900
      6 C7          -4.9020     1.5710    -2.5040 c3         1 F65       0.198300
      7 C8          -5.0100     3.0680    -2.7700 c3         1 F65      -0.078900
      8 C9          -5.0890     3.9750    -1.5450 c3         1 F65      -0.066900
      9 C10         -3.7040     4.3610    -1.0370 c3         1 F65      -0.066900
     10 C12         -2.8090     1.9310    -1.2240 c3         1 F65       0.198300
     11 C13         -3.9640    -0.5980     0.2750 ca         1 F65       0.248000
     12 N1          -4.0850     1.2140    -1.3490 nh         1 F65      -0.806400
     13 N2          -3.9640     0.3690     1.2960 nu         1 F65      -0.887100
     14 C3          -4.0560    -2.9050    -0.4350 ca         1 F65      -0.141600
     15 N3          10.1920    -0.1770    -0.8870 n3         1 F65      -0.714600
     16 O2          -3.9500    -4.7180     1.1000 o          1 F65      -0.477000
     17 C2          -4.0520    -4.3340    -0.0410 c          1 F65       0.604700
     18 O1          -4.1730    -5.1480    -1.0770 os         1 F65      -0.444100
     19 C1          -4.1710    -6.5520    -0.8190 c3         1 F65       0.154900
     20 C30         -3.9850    -1.9500     0.5740 ca         1 F65      -0.067000
     21 S           -2.8540     0.4160     2.5310 sy         1 F65       1.161600
     22 O4          -2.9240    -0.8530     3.2330 o          1 F65      -0.530000
     23 O3          -3.1350     1.6530     3.2370 o          1 F65      -0.530000
     24 C15         -0.6460     1.7620     1.6520 ca         1 F65      -0.011500
     25 C16          0.5550     1.8500     0.9680 ca         1 F65      -0.133000
     26 C17          1.1450     0.7240     0.3990 ca         1 F65      -0.020300
     27 C28          0.5200    -0.5110     0.5640 ca         1 F65      -0.133000
     28 C29         -0.6760    -0.6230     1.2520 ca         1 F65      -0.011500
     29 C18          2.4410     0.8300    -0.3480 c3         1 F65      -0.043100
     30 C19          3.6610     0.6130     0.5500 c3         1 F65      -0.072400
     31 C20          4.9650     0.7240    -0.2290 c3         1 F65      -0.075400
     32 C21          6.2000     0.5260     0.6410 c3         1 F65      -0.069400
     33 C22          7.5240     0.7150    -0.0950 c6         1 F65      -0.060700
     34 C23          7.7560    -0.3220    -1.1910 c6         1 F65      -0.072900
     35 C24          9.1120    -0.1340    -1.8530 c6         1 F65       0.167300
     36 C26         10.0280     0.8400     0.1350 c6         1 F65       0.167300
     37 C27          8.7070     0.6810     0.8690 c6         1 F65      -0.072900
     38 H1          -4.2260    -3.2020    -2.5660 ha         1 F65       0.132000
     39 H2          -4.2490    -0.8440    -3.0920 ha         1 F65       0.119000
     40 H3          -1.8750     3.5790    -0.2580 hc         1 F65       0.040950
     41 H4          -3.2920     3.0120     0.5770 hc         1 F65       0.040950
     42 H5          -5.8990     1.1630    -2.3250 h1         1 F65       0.038450
     43 H6          -4.5330     1.1120    -3.4310 h1         1 F65       0.038450
     44 H7          -4.1680     3.3940    -3.3890 hc         1 F65       0.040950
     45 H8          -5.8950     3.1980    -3.3970 hc         1 F65       0.040950
     46 H9          -5.6180     4.8900    -1.8220 hc         1 F65       0.042950
     47 H10         -5.6800     3.5090    -0.7500 hc         1 F65       0.042950
     48 H11         -3.7900     5.1580    -0.2940 hc         1 F65       0.042950
     49 H12         -3.1420     4.7860    -1.8750 hc         1 F65       0.042950
     50 H13         -2.3930     2.1310    -2.2200 h1         1 F65       0.038450
     51 H14         -2.0870     1.2700    -0.7390 h1         1 F65       0.038450
     52 H15         -4.2570     1.2890     0.9790 hn         1 F65       0.517000
     53 H17         -4.9950    -6.8380    -0.1660 h1         1 F65       0.049367
     54 H18         -4.2940    -7.0310    -1.7850 h1         1 F65       0.049367
     55 H19         -3.2300    -6.8720    -0.3720 h1         1 F65       0.049367
     56 H20         -3.9750    -2.2720     1.6050 ha         1 F65       0.171000
     57 H21         -1.0960     2.6530     2.0680 ha         1 F65       0.138500
     58 H22          1.0310     2.8170     0.8630 ha         1 F65       0.119000
     59 H23          0.9700    -1.4020     0.1440 ha         1 F65       0.119000
     60 H24         -1.1340    -1.5950     1.3740 ha         1 F65       0.138500
     61 H25          2.4570     0.0950    -1.1570 hc         1 F65       0.050200
     62 H26          2.5120     1.8150    -0.8170 hc         1 F65       0.050200
     63 H27          3.6490     1.3460     1.3640 hc         1 F65       0.046200
     64 H28          3.5960    -0.3720     1.0230 hc         1 F65       0.046200
     65 H29          4.9520    -0.0090    -1.0410 hc         1 F65       0.037700
     66 H30          5.0140     1.7080    -0.7090 hc         1 F65       0.037700
     67 H31          6.1620     1.2340     1.4770 hc         1 F65       0.041200
     68 H32          6.1780    -0.4740     1.0900 hc         1 F65       0.041200
     69 H33          7.5140     1.7060    -0.5710 hc         1 F65       0.041700
     70 H34          7.6990    -1.3270    -0.7580 hc         1 F65       0.046450
     71 H35          6.9820    -0.2630    -1.9600 hc         1 F65       0.046450
     72 H36          9.1110     0.8210    -2.4130 h1         1 F65       0.028700
     73 H37          9.2740    -0.9230    -2.5910 h1         1 F65       0.028700
     74 H38         11.6190     0.8920    -2.0610 h1         1 F65       0.029367
     75 H39         12.2810    -0.1610    -0.8000 h1         1 F65       0.029367
     76 H40         11.6030    -0.8660    -2.2670 h1         1 F65       0.029367
     77 H41         10.8600     0.7610     0.8410 h1         1 F65       0.028700
     78 H42         10.0790     1.8560    -0.2980 h1         1 F65       0.028700
     79 H43          8.6110     1.4770     1.6120 hc         1 F65       0.046450
     80 H44          8.7060    -0.2670     1.4180 hc         1 F65       0.046450
     81 C25         11.4790    -0.0670    -1.5340 c3         1 F65       0.153100
@<TRIPOS>BOND
     1     1     3 ar  
     2     1    14 ar  
     3     1    38 1   
     4     2    21 1   
     5     2    24 ar  
     6     2    28 ar  
     7     3     4 ar  
     8     3    39 1   
     9     4    11 ar  
    10     4    12 1   
    11     5     9 1   
    12     5    10 1   
    13     5    40 1   
    14     5    41 1   
    15     6     7 1   
    16     6    12 1   
    17     6    42 1   
    18     6    43 1   
    19     7     8 1   
    20     7    44 1   
    21     7    45 1   
    22     8     9 1   
    23     8    46 1   
    24     8    47 1   
    25     9    48 1   
    26     9    49 1   
    27    10    12 1   
    28    10    50 1   
    29    10    51 1   
    30    11    13 1   
    31    11    20 ar  
    32    13    21 1   
    33    13    52 1   
    34    14    17 1   
    35    14    20 ar  
    36    15    35 1   
    37    15    36 1   
    38    15    81 1   
    39    16    17 2   
    40    17    18 1   
    41    18    19 1   
    42    19    53 1   
    43    19    54 1   
    44    19    55 1   
    45    20    56 1   
    46    21    22 2   
    47    21    23 2   
    48    24    25 ar  
    49    24    57 1   
    50    25    26 ar  
    51    25    58 1   
    52    26    27 ar  
    53    26    29 1   
    54    27    28 ar  
    55    27    59 1   
    56    28    60 1   
    57    29    30 1   
    58    29    61 1   
    59    29    62 1   
    60    30    31 1   
    61    30    63 1   
    62    30    64 1   
    63    31    32 1   
    64    31    65 1   
    65    31    66 1   
    66    32    33 1   
    67    32    67 1   
    68    32    68 1   
    69    33    34 1   
    70    33    37 1   
    71    33    69 1   
    72    34    35 1   
    73    34    70 1   
    74    34    71 1   
    75    35    72 1   
    76    35    73 1   
    77    36    37 1   
    78    36    77 1   
    79    36    78 1   
    80    37    79 1   
    81    37    80 1   
    82    74    81 1   
    83    75    81 1   
    84    76    81 1   
@<TRIPOS>SUBSTRUCTURE
     1 F65         1 TEMP              0 ****  ****    0 ROOT
