@<TRIPOS>MOLECULE
F66
   27    28     1     0     0
SMALL
abcg2


@<TRIPOS>ATOM
      1 N1          56.4340    45.9320    13.8440 na         1 F66      -0.235700
      2 C4          57.2860    46.2190    15.9030 ca         1 F66      -0.092800
      3 C5          58.0690    46.8610    16.8710 ca         1 F66      -0.064000
      4 C6          58.8020    47.9830    16.5110 ca         1 F66      -0.142000
      5 C7          58.7700    48.4790    15.1960 ca         1 F66      -0.093000
      6 C8          58.0060    47.8620    14.2140 ca         1 F66      -0.130000
      7 C11         57.2370    43.1280    17.3030 c3         1 F66       0.147800
      8 C2          55.9150    44.9330    14.6490 cc         1 F66      -0.048300
      9 C3          56.4150    45.0750    15.9240 cd         1 F66      -0.137400
     10 C9          57.2700    46.7370    14.5790 ca         1 F66      -0.040200
     11 N2          56.9530    42.3140    18.4930 n8         1 F66      -1.006200
     12 H8          56.2000    46.0670    12.8750 hn         1 F66       0.347000
     13 H4          58.1020    46.4860    17.8870 ha         1 F66       0.111000
     14 H5          59.4100    48.4870    17.2520 ha         1 F66       0.109000
     15 H6          59.3530    49.3560    14.9430 ha         1 F66       0.109000
     16 H7          57.9800    48.2430    13.2000 ha         1 F66       0.112000
     17 H9          56.1020    44.8060    18.0120 hc         1 F66       0.048700
     18 H10         55.1880    43.6950    17.0080 hc         1 F66       0.048700
     19 H1          55.4660    43.3130    13.3220 hc         1 F66       0.050700
     20 H2          54.6200    43.2570    14.8710 hc         1 F66       0.050700
     21 H3          54.1130    44.4020    13.6210 hc         1 F66       0.050700
     22 H11         57.2490    42.4670    16.4330 h1         1 F66       0.032200
     23 H12         58.2170    43.6220    17.3450 h1         1 F66       0.032200
     24 H14         57.6650    41.5970    18.5960 hn         1 F66       0.391500
     25 H13         57.0210    42.8950    19.3240 hn         1 F66       0.391500
     26 C10         56.1550    44.1940    17.1050 c3         1 F66      -0.002200
     27 C1          54.9780    43.9220    14.0870 c3         1 F66      -0.039900
@<TRIPOS>BOND
     1     1     8 1   
     2     1    10 1   
     3     1    12 1   
     4     2     3 ar  
     5     2     9 1   
     6     2    10 ar  
     7     3     4 ar  
     8     3    13 1   
     9     4     5 ar  
    10     4    14 1   
    11     5     6 ar  
    12     5    15 1   
    13     6    10 ar  
    14     6    16 1   
    15     7    11 1   
    16     7    22 1   
    17     7    23 1   
    18     7    26 1   
    19     8     9 2   
    20     8    27 1   
    21     9    26 1   
    22    11    24 1   
    23    11    25 1   
    24    17    26 1   
    25    18    26 1   
    26    19    27 1   
    27    20    27 1   
    28    21    27 1   
@<TRIPOS>SUBSTRUCTURE
     1 F66         1 TEMP              0 ****  ****    0 ROOT
