@<TRIPOS>MOLECULE
F66
   27    28     1     0     0
SMALL
No Charge or Current Charge


@<TRIPOS>ATOM
      1 N1          56.4700    45.9290    13.7980 na         1 F66      -0.235700
      2 C4          57.2980    46.2300    15.8570 ca         1 F66      -0.092800
      3 C5          58.0540    46.8240    16.8770 ca         1 F66      -0.064000
      4 C6          58.8320    47.9530    16.5410 ca         1 F66      -0.142000
      5 C7          58.8360    48.4540    15.2160 ca         1 F66      -0.093000
      6 C8          58.0610    47.8290    14.2140 ca         1 F66      -0.130000
      7 C11         57.2170    43.1990    17.3480 c3         1 F66       0.147800
      8 C2          55.9010    44.9010    14.5760 cc         1 F66      -0.048300
      9 C3          56.4140    45.0860    15.8570 cd         1 F66      -0.137400
     10 C9          57.3010    46.7110    14.5790 ca         1 F66      -0.040200
     11 N2          56.9170    42.3600    18.5290 n8         1 F66      -1.006200
     12 H8          56.2980    46.0750    12.8090 hn         1 F66       0.347000
     13 H4          58.0440    46.4300    17.8910 ha         1 F66       0.111000
     14 H5          59.4320    48.4420    17.3050 ha         1 F66       0.109000
     15 H6          59.4390    49.3250    14.9680 ha         1 F66       0.109000
     16 H7          58.0570    48.2050    13.1930 ha         1 F66       0.112000
     17 H9          55.9740    44.8740    17.9450 hc         1 F66       0.048700
     18 H10         55.1530    43.7070    16.9230 hc         1 F66       0.048700
     19 H1          54.8600    43.9110    12.9640 hc         1 F66       0.050700
     20 H2          55.2990    42.8510    14.3140 hc         1 F66       0.050700
     21 H3          53.9520    43.9920    14.4850 hc         1 F66       0.050700
     22 H11         57.3350    42.5450    16.4730 h1         1 F66       0.032200
     23 H12         58.1680    43.7210    17.5190 h1         1 F66       0.032200
     24 H14         57.7100    41.7300    18.7020 hn         1 F66       0.391500
     25 H13         56.8970    42.9560    19.3660 hn         1 F66       0.391500
     26 C10         56.1050    44.2330    17.0650 c3         1 F66      -0.002200
     27 C1          54.9510    43.8580    14.0550 c3         1 F66      -0.039900
@<TRIPOS>BOND
     1     1     8 1   
     2     1    10 1   
     3     1    12 1   
     4     2     3 ar  
     5     2     9 1   
     6     2    10 ar  
     7     3     4 ar  
     8     3    13 1   
     9     4     5 ar  
    10     4    14 1   
    11     5     6 ar  
    12     5    15 1   
    13     6    10 ar  
    14     6    16 1   
    15     7    11 1   
    16     7    22 1   
    17     7    23 1   
    18     7    26 1   
    19     8     9 2   
    20     8    27 1   
    21     9    26 1   
    22    11    24 1   
    23    11    25 1   
    24    17    26 1   
    25    18    26 1   
    26    19    27 1   
    27    20    27 1   
    28    21    27 1   
@<TRIPOS>SUBSTRUCTURE
     1 F66         1 TEMP              0 ****  ****    0 ROOT
