@<TRIPOS>MOLECULE
F67
   30    32     1     0     0
SMALL
No Charge or Current Charge


@<TRIPOS>ATOM
      1 O1          -4.8470     0.9050     0.2850 o          1 F67      -0.549000
      2 C16         -3.8600     0.2430     0.0090 c          1 F67       0.586600
      3 N15         -3.8690    -1.0800    -0.3760 ns         1 F67      -0.521900
      4 C14         -2.5050    -1.5810    -0.6230 c5         1 F67       0.157000
      5 C18         -2.1530    -2.7710     0.2900 c3         1 F67      -0.101100
      6 C10         -1.6470    -0.3630    -0.3510 ca         1 F67      -0.055300
      7 C9          -0.2540    -0.2140    -0.4280 ca         1 F67      -0.125000
      8 C11         -2.4500     0.6950     0.0170 ca         1 F67      -0.192600
      9 C12         -1.9220     1.9560     0.3210 ca         1 F67      -0.008000
     10 C13         -0.5230     2.1190     0.2470 ca         1 F67      -0.188000
     11 C8           0.3160     1.0400    -0.1130 ca         1 F67       0.332000
     12 N7           1.6940     1.2740    -0.1770 nu         1 F67      -0.932900
     13 C3           2.8230     0.4690    -0.0750 ca         1 F67       0.383900
     14 N2           2.6810    -0.8000     0.3460 nb         1 F67      -0.250000
     15 C4           4.0820     1.0060    -0.3660 ca         1 F67      -0.282000
     16 C5           5.1980     0.1650    -0.2230 ca         1 F67       0.134900
     17 N6           5.0670    -1.1110     0.1880 nb         1 F67      -0.202000
     18 C1           3.8110    -1.5300     0.4530 ca         1 F67       0.158900
     19 H1          -4.7410    -1.5910    -0.4480 hn         1 F67       0.330500
     20 H2          -2.3840    -1.8960    -1.6690 h1         1 F67       0.067700
     21 H3          -2.8210    -3.6190     0.1020 hc         1 F67       0.047700
     22 H4          -1.1250    -3.1090     0.1140 hc         1 F67       0.047700
     23 H5          -2.2420    -2.4980     1.3480 hc         1 F67       0.047700
     24 H6           0.3620    -1.0490    -0.7430 ha         1 F67       0.158000
     25 H7          -2.5700     2.7830     0.6050 ha         1 F67       0.136000
     26 H8          -0.0910     3.0880     0.4810 ha         1 F67       0.113000
     27 H9           1.9270     2.2640    -0.2440 hn         1 F67       0.499000
     28 H10          4.2000     2.0340    -0.6950 ha         1 F67       0.132000
     29 H11          6.2070     0.5160    -0.4360 h4         1 F67       0.025100
     30 H12          3.6990    -2.5590     0.7890 h5         1 F67       0.048100
@<TRIPOS>BOND
     1     1     2 2   
     2     2     3 1   
     3     2     8 1   
     4     3     4 1   
     5     3    19 1   
     6     4     5 1   
     7     4     6 1   
     8     4    20 1   
     9     5    21 1   
    10     5    22 1   
    11     5    23 1   
    12     6     7 ar  
    13     6     8 ar  
    14     7    11 ar  
    15     7    24 1   
    16     8     9 ar  
    17     9    10 ar  
    18     9    25 1   
    19    10    11 ar  
    20    10    26 1   
    21    11    12 1   
    22    12    13 1   
    23    12    27 1   
    24    13    14 ar  
    25    13    15 ar  
    26    14    18 ar  
    27    15    16 ar  
    28    15    28 1   
    29    16    17 ar  
    30    16    29 1   
    31    17    18 ar  
    32    18    30 1   
@<TRIPOS>SUBSTRUCTURE
     1 F67         1 TEMP              0 ****  ****    0 ROOT
