@<TRIPOS>MOLECULE
F67
   30    32     1     0     0
SMALL
abcg2


@<TRIPOS>ATOM
      1 O1          -4.8410     0.9310    -0.1030 o          1 F67      -0.549000
      2 C16         -3.8320     0.2510    -0.1990 c          1 F67       0.586600
      3 N15         -3.7680    -1.0840    -0.4010 ns         1 F67      -0.521900
      4 C14         -2.4260    -1.6330    -0.4620 c5         1 F67       0.157000
      5 C18         -2.1800    -2.6940     0.6020 c3         1 F67      -0.101100
      6 C10         -1.5950    -0.3940    -0.2790 ca         1 F67      -0.055300
      7 C9          -0.2190    -0.2790    -0.2470 ca         1 F67      -0.125000
      8 C11         -2.4280     0.6990    -0.1210 ca         1 F67      -0.192600
      9 C12         -1.9020     1.9670     0.0750 ca         1 F67      -0.008000
     10 C13         -0.5290     2.1050     0.1060 ca         1 F67      -0.188000
     11 C8           0.3250     0.9960    -0.0520 ca         1 F67       0.332000
     12 N7           1.6840     1.2750    -0.0040 nu         1 F67      -0.932900
     13 C3           2.7750     0.4680    -0.0760 ca         1 F67       0.383900
     14 N2           2.6390    -0.8470    -0.2120 nb         1 F67      -0.250000
     15 C4           4.0540     1.0490    -0.0010 ca         1 F67      -0.282000
     16 C5           5.1240     0.1960    -0.0730 ca         1 F67       0.134900
     17 N6           4.9920    -1.1300    -0.2090 nb         1 F67      -0.202000
     18 C1           3.7500    -1.5670    -0.2700 ca         1 F67       0.158900
     19 H1          -4.5890    -1.6580    -0.5110 hn         1 F67       0.330500
     20 H2          -2.2430    -2.0660    -1.4520 h1         1 F67       0.067700
     21 H3          -2.8560    -3.5390     0.4650 hc         1 F67       0.047700
     22 H4          -1.1600    -3.0710     0.5360 hc         1 F67       0.047700
     23 H5          -2.3340    -2.2830     1.6010 hc         1 F67       0.047700
     24 H6           0.4200    -1.1390    -0.3670 ha         1 F67       0.158000
     25 H7          -2.5410     2.8310     0.2000 ha         1 F67       0.136000
     26 H8          -0.0960     3.0870     0.2610 ha         1 F67       0.113000
     27 H9           1.9000     2.2530     0.1170 hn         1 F67       0.499000
     28 H10          4.1900     2.1160     0.1060 ha         1 F67       0.132000
     29 H11          6.1350     0.5830    -0.0220 h4         1 F67       0.025100
     30 H12          3.6120    -2.6380    -0.3800 h5         1 F67       0.048100
@<TRIPOS>BOND
     1     1     2 2   
     2     2     3 1   
     3     2     8 1   
     4     3     4 1   
     5     3    19 1   
     6     4     5 1   
     7     4     6 1   
     8     4    20 1   
     9     5    21 1   
    10     5    22 1   
    11     5    23 1   
    12     6     7 ar  
    13     6     8 ar  
    14     7    11 ar  
    15     7    24 1   
    16     8     9 ar  
    17     9    10 ar  
    18     9    25 1   
    19    10    11 ar  
    20    10    26 1   
    21    11    12 1   
    22    12    13 1   
    23    12    27 1   
    24    13    14 ar  
    25    13    15 ar  
    26    14    18 ar  
    27    15    16 ar  
    28    15    28 1   
    29    16    17 ar  
    30    16    29 1   
    31    17    18 ar  
    32    18    30 1   
@<TRIPOS>SUBSTRUCTURE
     1 F67         1 TEMP              0 ****  ****    0 ROOT
