@<TRIPOS>MOLECULE
F68
   44    45     1     0     0
SMALL
abcg2


@<TRIPOS>ATOM
      1 C10         -5.1610    -1.1300    -0.5610 ca         1 F68      -0.066000
      2 C11         -6.3900    -0.7740    -0.0390 ca         1 F68      -0.121000
      3 C12         -6.5530     0.4110     0.6800 ca         1 F68      -0.046300
      4 C15         -7.8890     0.7830     1.2470 c3         1 F68      -0.053800
      5 C13         -5.4400     1.2280     0.8570 ca         1 F68      -0.121000
      6 C14         -4.2000     0.8720     0.3460 ca         1 F68      -0.066000
      7 C9          -4.0450    -0.3160    -0.3650 ca         1 F68      -0.166600
      8 C8          -2.7530    -0.7380    -0.9760 c          1 F68       0.632700
      9 O8          -2.7120    -1.4940    -1.9210 o          1 F68      -0.517100
     10 N2          -1.6330    -0.2190    -0.3670 ns         1 F68      -0.492500
     11 C7          -0.3270    -0.3010    -0.8410 c          1 F68       0.668100
     12 O7          -0.0330    -0.7390    -1.9300 o          1 F68      -0.550100
     13 N1           0.5730     0.2090     0.0440 ns         1 F68      -0.523900
     14 C1           1.9720     0.2330    -0.2200 c6         1 F68       0.311700
     15 O5           2.5680    -0.8970     0.3720 os         1 F68      -0.460000
     16 C5           3.9450    -1.0200     0.0840 c6         1 F68       0.179300
     17 C6           4.4300    -2.3240     0.6820 c3         1 F68       0.172600
     18 O6           3.7610    -3.3900     0.0520 oh         1 F68      -0.705000
     19 C4           4.7010     0.1820     0.6510 c6         1 F68       0.143300
     20 O4           6.0550     0.0580     0.2970 oh         1 F68      -0.714000
     21 C3           4.1010     1.4720     0.1020 c6         1 F68       0.139300
     22 O3           4.7660     2.5450     0.7240 oh         1 F68      -0.666000
     23 C2           2.5990     1.5110     0.3440 c6         1 F68       0.098300
     24 O2           2.0940     2.6550    -0.2950 oh         1 F68      -0.714000
     25 H10         -5.0650    -2.0520    -1.1200 ha         1 F68       0.122500
     26 H11         -7.2410    -1.4260    -0.1950 ha         1 F68       0.117000
     27 H15         -8.1460     0.1400     2.0900 hc         1 F68       0.047700
     28 H15A        -7.9030     1.8130     1.6000 hc         1 F68       0.047700
     29 H15B        -8.6790     0.6670     0.5050 hc         1 F68       0.047700
     30 H13         -5.5380     2.1620     1.3960 ha         1 F68       0.117000
     31 H14         -3.3730     1.5560     0.4910 ha         1 F68       0.122500
     32 HN2         -1.7730     0.2660     0.5060 hn         1 F68       0.312500
     33 HN1          0.2760     0.4200     0.9860 hn         1 F68       0.307500
     34 H1           2.1170     0.2180    -1.3070 h2         1 F68       0.091700
     35 H5           4.1000    -1.0500    -1.0080 h1         1 F68       0.068700
     36 H6           5.5140    -2.3850     0.5420 h1         1 F68       0.034200
     37 H6A          4.2450    -2.3080     1.7660 h1         1 F68       0.034200
     38 HO6          4.1280    -4.2110     0.3910 ho         1 F68       0.503000
     39 H4           4.5760     0.1810     1.7460 h1         1 F68       0.051700
     40 HO4          6.5270     0.8210     0.6450 ho         1 F68       0.525000
     41 H3           4.2710     1.4880    -0.9870 h1         1 F68       0.059700
     42 HO3          4.5410     3.3570     0.2600 ho         1 F68       0.466000
     43 H2           2.4170     1.5430     1.4300 h1         1 F68       0.048700
     44 HO2          1.1880     2.8010    -0.0070 ho         1 F68       0.514000
@<TRIPOS>BOND
     1     1     2 ar  
     2     1     7 ar  
     3     1    25 1   
     4     2     3 ar  
     5     2    26 1   
     6     3     4 1   
     7     3     5 ar  
     8     4    27 1   
     9     4    28 1   
    10     4    29 1   
    11     5     6 ar  
    12     5    30 1   
    13     6     7 ar  
    14     6    31 1   
    15     7     8 1   
    16     8     9 2   
    17     8    10 1   
    18    10    11 1   
    19    10    32 1   
    20    11    12 2   
    21    11    13 1   
    22    13    14 1   
    23    13    33 1   
    24    14    15 1   
    25    14    23 1   
    26    14    34 1   
    27    15    16 1   
    28    16    17 1   
    29    16    19 1   
    30    16    35 1   
    31    17    18 1   
    32    17    36 1   
    33    17    37 1   
    34    18    38 1   
    35    19    20 1   
    36    19    21 1   
    37    19    39 1   
    38    20    40 1   
    39    21    22 1   
    40    21    23 1   
    41    21    41 1   
    42    22    42 1   
    43    23    24 1   
    44    23    43 1   
    45    24    44 1   
@<TRIPOS>SUBSTRUCTURE
     1 F68         1 TEMP              0 ****  ****    0 ROOT
