@<TRIPOS>MOLECULE
F68
   44    45     1     0     0
SMALL
No Charge or Current Charge


@<TRIPOS>ATOM
      1 C10         -5.2470    -0.9060    -0.9020 ca         1 F68      -0.066000
      2 C11         -6.4560    -0.5980    -0.2570 ca         1 F68      -0.121000
      3 C12         -6.4730     0.2640     0.8510 ca         1 F68      -0.046300
      4 C15         -7.7830     0.5940     1.5500 c3         1 F68      -0.053800
      5 C13         -5.2640     0.8130     1.3110 ca         1 F68      -0.121000
      6 C14         -4.0500     0.5090     0.6700 ca         1 F68      -0.066000
      7 C9          -4.0230    -0.3590    -0.4510 ca         1 F68      -0.166600
      8 C8          -2.7370    -0.7170    -1.1770 c          1 F68       0.632700
      9 O8          -2.7380    -1.4700    -2.1400 o          1 F68      -0.517100
     10 N2          -1.5870    -0.1490    -0.6890 ns         1 F68      -0.492500
     11 C7          -0.2990    -0.2770    -1.1160 c          1 F68       0.668100
     12 O7           0.0540    -0.9540    -2.0650 o          1 F68      -0.550100
     13 N1           0.5730     0.4620    -0.3660 ns         1 F68      -0.523900
     14 C1           2.0230     0.4020    -0.5020 c6         1 F68       0.311700
     15 O5           2.4420    -0.7550     0.2450 os         1 F68      -0.460000
     16 C5           3.8700    -1.0250     0.1860 c6         1 F68       0.179300
     17 C6           4.1530    -2.3660     0.9440 c3         1 F68       0.172600
     18 O6           3.4000    -3.4850     0.4320 oh         1 F68      -0.705000
     19 C4           4.6590     0.1770     0.7950 c6         1 F68       0.143300
     20 O4           6.0850    -0.0050     0.7130 oh         1 F68      -0.714000
     21 C3           4.2550     1.4820     0.0490 c6         1 F68       0.139300
     22 O3           4.9130     2.6250     0.6220 oh         1 F68      -0.666000
     23 C2           2.7120     1.6780     0.0920 c6         1 F68       0.098300
     24 O2           2.3550     2.8850    -0.6240 oh         1 F68      -0.714000
     25 H10         -5.2670    -1.5780    -1.7590 ha         1 F68       0.122500
     26 H11         -7.3840    -1.0340    -0.6230 ha         1 F68       0.117000
     27 H15         -7.9850    -0.1200     2.3570 hc         1 F68       0.047700
     28 H15A        -7.7600     1.5980     1.9890 hc         1 F68       0.047700
     29 H15B        -8.6280     0.5600     0.8530 hc         1 F68       0.047700
     30 H13         -5.2630     1.4790     2.1710 ha         1 F68       0.117000
     31 H14         -3.1430     0.9590     1.0640 ha         1 F68       0.122500
     32 HN2         -1.7180     0.4510     0.1060 hn         1 F68       0.312500
     33 HN1          0.1980     0.9580     0.4300 hn         1 F68       0.307500
     34 H1           2.2930     0.2870    -1.5650 h2         1 F68       0.091700
     35 H5           4.1630    -1.1600    -0.8650 h1         1 F68       0.068700
     36 H6           5.2280    -2.5790     0.8750 h1         1 F68       0.034200
     37 H6A          3.9210    -2.2110     2.0070 h1         1 F68       0.034200
     38 HO6          3.5970    -4.2550     1.0150 ho         1 F68       0.503000
     39 H4           4.3600     0.2790     1.8490 h1         1 F68       0.051700
     40 HO4          6.4620     0.9010     0.8340 ho         1 F68       0.525000
     41 H3           4.5500     1.3780    -1.0070 h1         1 F68       0.059700
     42 HO3          4.3710     3.3940     0.3270 ho         1 F68       0.466000
     43 H2           2.4060     1.7670     1.1450 h1         1 F68       0.048700
     44 HO2          1.3700     2.9190    -0.6770 ho         1 F68       0.514000
@<TRIPOS>BOND
     1     1     2 ar  
     2     1     7 ar  
     3     1    25 1   
     4     2     3 ar  
     5     2    26 1   
     6     3     4 1   
     7     3     5 ar  
     8     4    27 1   
     9     4    28 1   
    10     4    29 1   
    11     5     6 ar  
    12     5    30 1   
    13     6     7 ar  
    14     6    31 1   
    15     7     8 1   
    16     8     9 2   
    17     8    10 1   
    18    10    11 1   
    19    10    32 1   
    20    11    12 2   
    21    11    13 1   
    22    13    14 1   
    23    13    33 1   
    24    14    15 1   
    25    14    23 1   
    26    14    34 1   
    27    15    16 1   
    28    16    17 1   
    29    16    19 1   
    30    16    35 1   
    31    17    18 1   
    32    17    36 1   
    33    17    37 1   
    34    18    38 1   
    35    19    20 1   
    36    19    21 1   
    37    19    39 1   
    38    20    40 1   
    39    21    22 1   
    40    21    23 1   
    41    21    41 1   
    42    22    42 1   
    43    23    24 1   
    44    23    43 1   
    45    24    44 1   
@<TRIPOS>SUBSTRUCTURE
     1 F68         1 TEMP              0 ****  ****    0 ROOT
