@<TRIPOS>MOLECULE
F69
   23    24     1     0     0
SMALL
No Charge or Current Charge


@<TRIPOS>ATOM
      1 C1           0.4190     0.6150     0.0000 ca         1 F69      -0.017000
      2 C2           0.9180     1.9250    -0.1500 ca         1 F69      -0.094000
      3 C3           2.2960     2.1600    -0.2690 ca         1 F69      -0.111000
      4 C4           3.1920     1.0820    -0.2420 ca         1 F69      -0.108000
      5 C5           2.7090    -0.2270    -0.0860 ca         1 F69      -0.087000
      6 C6           1.3240    -0.4780     0.0510 ca         1 F69      -0.068300
      7 C7          -1.0290     0.4280     0.0830 cc         1 F69      -0.162000
      8 C8          -1.7740     1.0830     1.0290 cd         1 F69      -0.123000
      9 C9          -3.1630     0.8010     0.9170 cd         1 F69      -0.132000
     10 C10         -3.4720    -0.0530    -0.1160 cc         1 F69      -0.242000
     11 S11         -2.0250    -0.5360    -1.0020 ss         1 F69       0.191000
     12 C12          0.8250    -1.9160     0.2440 c3         1 F69       0.204900
     13 O13          1.7380    -2.7000     1.0270 oh         1 F69      -0.659000
     14 H2           0.2280     2.7660    -0.1880 ha         1 F69       0.117000
     15 H3           2.6680     3.1750    -0.3890 ha         1 F69       0.114000
     16 H4           4.2600     1.2600    -0.3410 ha         1 F69       0.114000
     17 H5           3.4190    -1.0510    -0.0660 ha         1 F69       0.131000
     18 H8          -1.3520     1.7410     1.7840 ha         1 F69       0.138000
     19 H9          -3.9110     1.2230     1.5830 ha         1 F69       0.134000
     20 H10         -4.4380    -0.4300    -0.4260 h4         1 F69       0.150000
     21 H12         -0.1530    -1.9050     0.7430 h1         1 F69       0.032700
     22 H12A         0.6840    -2.3740    -0.7440 h1         1 F69       0.032700
     23 HO13         1.3420    -3.5950     1.1120 ho         1 F69       0.446000
@<TRIPOS>BOND
     1     1     2 ar  
     2     1     6 ar  
     3     1     7 1   
     4     2     3 ar  
     5     2    14 1   
     6     3     4 ar  
     7     3    15 1   
     8     4     5 ar  
     9     4    16 1   
    10     5     6 ar  
    11     5    17 1   
    12     6    12 1   
    13     7     8 2   
    14     7    11 1   
    15     8     9 1   
    16     8    18 1   
    17     9    10 2   
    18     9    19 1   
    19    10    11 1   
    20    10    20 1   
    21    12    13 1   
    22    12    21 1   
    23    12    22 1   
    24    13    23 1   
@<TRIPOS>SUBSTRUCTURE
     1 F69         1 TEMP              0 ****  ****    0 ROOT
