@<TRIPOS>MOLECULE
F69
   23    24     1     0     0
SMALL
abcg2


@<TRIPOS>ATOM
      1 C1           0.4420     0.6350    -0.0000 ca         1 F69      -0.017000
      2 C2           0.9590     1.9140    -0.2070 ca         1 F69      -0.094000
      3 C3           2.3240     2.1210    -0.3270 ca         1 F69      -0.111000
      4 C4           3.1860     1.0380    -0.2470 ca         1 F69      -0.108000
      5 C5           2.6820    -0.2380    -0.0380 ca         1 F69      -0.087000
      6 C6           1.3140    -0.4600     0.0940 ca         1 F69      -0.068300
      7 C7          -1.0160     0.4880     0.1420 cc         1 F69      -0.162000
      8 C8          -1.8240     1.0640     1.0790 cd         1 F69      -0.123000
      9 C9          -3.1980     0.7460     0.9040 cd         1 F69      -0.132000
     10 C10         -3.4160    -0.0610    -0.1690 cc         1 F69      -0.242000
     11 S11         -1.9530    -0.4370    -0.9770 ss         1 F69       0.191000
     12 C12          0.7820    -1.8480     0.3430 c3         1 F69       0.204900
     13 O13          1.8070    -2.6720     0.8380 oh         1 F69      -0.659000
     14 H2           0.2750     2.7490    -0.2820 ha         1 F69       0.117000
     15 H3           2.7080     3.1200    -0.4870 ha         1 F69       0.114000
     16 H4           4.2540     1.1830    -0.3430 ha         1 F69       0.114000
     17 H5           3.3690    -1.0700     0.0330 ha         1 F69       0.131000
     18 H8          -1.4430     1.6850     1.8780 ha         1 F69       0.138000
     19 H9          -3.9870     1.1010     1.5520 ha         1 F69       0.134000
     20 H10         -4.3540    -0.4530    -0.5290 h4         1 F69       0.150000
     21 H12         -0.0610    -1.7880     1.0430 h1         1 F69       0.032700
     22 H12A         0.3740    -2.2480    -0.5950 h1         1 F69       0.032700
     23 HO13         1.4800    -3.5760     0.8480 ho         1 F69       0.446000
@<TRIPOS>BOND
     1     1     2 ar  
     2     1     6 ar  
     3     1     7 1   
     4     2     3 ar  
     5     2    14 1   
     6     3     4 ar  
     7     3    15 1   
     8     4     5 ar  
     9     4    16 1   
    10     5     6 ar  
    11     5    17 1   
    12     6    12 1   
    13     7     8 2   
    14     7    11 1   
    15     8     9 1   
    16     8    18 1   
    17     9    10 2   
    18     9    19 1   
    19    10    11 1   
    20    10    20 1   
    21    12    13 1   
    22    12    21 1   
    23    12    22 1   
    24    13    23 1   
@<TRIPOS>SUBSTRUCTURE
     1 F69         1 TEMP              0 ****  ****    0 ROOT
