@<TRIPOS>MOLECULE
F6A
   39    41     1     0     0
SMALL
No Charge or Current Charge


@<TRIPOS>ATOM
      1 N           -0.3390     0.0310    -0.3060 ns         1 F6A      -0.140000
      2 O           -1.9600     1.4480    -1.1120 o          1 F6A      -0.552100
      3 F1          -5.7530     0.8820     0.9800 f          1 F6A      -0.107000
      4 C2          -4.0260    -0.5030     0.0070 ca         1 F6A      -0.153300
      5 F2          -4.7870     1.6280    -0.8060 f          1 F6A      -0.107000
      6 C3          -2.6670    -0.7450    -0.3860 ca         1 F6A      -0.105600
      7 F3          -3.7320     1.6220     1.1060 f          1 F6A      -0.107000
      8 C4          -2.2460    -2.0850    -0.5870 ca         1 F6A      -0.099000
      9 C5          -3.1310    -3.1600    -0.4270 ca         1 F6A      -0.084000
     10 C6          -4.4590    -2.9220    -0.0640 ca         1 F6A      -0.100000
     11 C7          -4.9010    -1.6090     0.1500 ca         1 F6A      -0.067000
     12 C8          -1.6520     0.3700    -0.6190 c          1 F6A       0.616700
     13 C9           0.8840     0.7520    -0.3820 ca         1 F6A      -0.024000
     14 C10          2.0740     0.0400    -0.1390 ca         1 F6A      -0.155000
     15 C11          3.3450     0.6650    -0.1880 cp         1 F6A      -0.006000
     16 C12          3.3880     2.0480    -0.4900 ca         1 F6A      -0.122000
     17 C13          2.2100     2.7730    -0.7260 ca         1 F6A      -0.087000
     18 C14          0.9620     2.1320    -0.6710 ca         1 F6A      -0.122000
     19 C15          4.6010    -0.1110     0.0690 cp         1 F6A      -0.037000
     20 C16          5.8010     0.1840    -0.6280 ca         1 F6A      -0.098500
     21 C17          6.9800    -0.5430    -0.3870 ca         1 F6A      -0.111500
     22 C18          6.9850    -1.5810     0.5580 ca         1 F6A      -0.106000
     23 C19          5.8100    -1.8920     1.2610 ca         1 F6A      -0.111500
     24 C20          4.6310    -1.1640     1.0190 ca         1 F6A      -0.098500
     25 HN          -0.2360    -0.9050     0.0640 hn         1 F6A       0.155000
     26 H4          -1.2290    -2.3090    -0.9020 ha         1 F6A       0.126000
     27 H5          -2.7870    -4.1790    -0.5960 ha         1 F6A       0.124000
     28 H6          -5.1480    -3.7550     0.0550 ha         1 F6A       0.125000
     29 H7          -5.9410    -1.4640     0.4360 ha         1 F6A       0.136000
     30 H10          2.0140    -1.0240     0.0760 ha         1 F6A       0.110000
     31 H12          4.3410     2.5680    -0.5240 ha         1 F6A       0.118000
     32 H13          2.2630     3.8370    -0.9470 ha         1 F6A       0.117000
     33 H14          0.0710     2.7260    -0.8480 ha         1 F6A       0.148000
     34 H16          5.8160     0.9760    -1.3730 ha         1 F6A       0.113500
     35 H17          7.8880    -0.3030    -0.9350 ha         1 F6A       0.113000
     36 H18          7.8970    -2.1440     0.7450 ha         1 F6A       0.113000
     37 H19          5.8120    -2.6940     1.9960 ha         1 F6A       0.113000
     38 H20          3.7370    -1.4120     1.5840 ha         1 F6A       0.113500
     39 C1          -4.5720     0.9100     0.3200 c3         1 F6A       0.358300
@<TRIPOS>BOND
     1     1    12 1   
     2     1    13 1   
     3     1    25 1   
     4     2    12 2   
     5     3    39 1   
     6     4     6 ar  
     7     4    11 ar  
     8     4    39 1   
     9     5    39 1   
    10     6     8 ar  
    11     6    12 1   
    12     7    39 1   
    13     8     9 ar  
    14     8    26 1   
    15     9    10 ar  
    16     9    27 1   
    17    10    11 ar  
    18    10    28 1   
    19    11    29 1   
    20    13    14 ar  
    21    13    18 ar  
    22    14    15 ar  
    23    14    30 1   
    24    15    16 ar  
    25    15    19 1   
    26    16    17 ar  
    27    16    31 1   
    28    17    18 ar  
    29    17    32 1   
    30    18    33 1   
    31    19    20 ar  
    32    19    24 ar  
    33    20    21 ar  
    34    20    34 1   
    35    21    22 ar  
    36    21    35 1   
    37    22    23 ar  
    38    22    36 1   
    39    23    24 ar  
    40    23    37 1   
    41    24    38 1   
@<TRIPOS>SUBSTRUCTURE
     1 F6A         1 TEMP              0 ****  ****    0 ROOT
