@<TRIPOS>MOLECULE
F6A
   39    41     1     0     0
SMALL
abcg2


@<TRIPOS>ATOM
      1 N           -0.3570     0.0130    -0.2770 ns         1 F6A      -0.140000
      2 O           -1.8800     1.3080    -1.3780 o          1 F6A      -0.552100
      3 F1          -5.0470     0.6760     1.7210 f          1 F6A      -0.107000
      4 C2          -3.7970    -0.5610     0.1560 ca         1 F6A      -0.153300
      5 F2          -4.5620     1.6540    -0.1250 f          1 F6A      -0.107000
      6 C3          -2.5910    -0.7860    -0.5140 ca         1 F6A      -0.105600
      7 F3          -3.0320     1.3170     1.3560 f          1 F6A      -0.107000
      8 C4          -2.3340    -2.0430    -1.0490 ca         1 F6A      -0.099000
      9 C5          -3.2660    -3.0660    -0.9380 ca         1 F6A      -0.084000
     10 C6          -4.4610    -2.8370    -0.2780 ca         1 F6A      -0.100000
     11 C7          -4.7220    -1.5910     0.2740 ca         1 F6A      -0.067000
     12 C8          -1.5870     0.3020    -0.7620 c          1 F6A       0.616700
     13 C9           0.8380     0.7290    -0.4280 ca         1 F6A      -0.024000
     14 C10          2.0130     0.0500    -0.1040 ca         1 F6A      -0.155000
     15 C11          3.2570     0.6630    -0.2090 cp         1 F6A      -0.006000
     16 C12          3.3160     1.9850    -0.6530 ca         1 F6A      -0.122000
     17 C13          2.1500     2.6590    -0.9720 ca         1 F6A      -0.087000
     18 C14          0.9070     2.0510    -0.8640 ca         1 F6A      -0.122000
     19 C15          4.4880    -0.0770     0.1370 cp         1 F6A      -0.037000
     20 C16          5.6590     0.1060    -0.6000 ca         1 F6A      -0.098500
     21 C17          6.8170    -0.5880    -0.2780 ca         1 F6A      -0.111500
     22 C18          6.8250    -1.4780     0.7880 ca         1 F6A      -0.106000
     23 C19          5.6660    -1.6680     1.5290 ca         1 F6A      -0.111500
     24 C20          4.5090    -0.9740     1.2060 ca         1 F6A      -0.098500
     25 HN          -0.2730    -0.8560     0.2300 hn         1 F6A       0.155000
     26 H4          -1.4050    -2.2240    -1.5750 ha         1 F6A       0.126000
     27 H5          -3.0530    -4.0350    -1.3670 ha         1 F6A       0.124000
     28 H6          -5.1920    -3.6280    -0.1810 ha         1 F6A       0.125000
     29 H7          -5.6540    -1.4380     0.8000 ha         1 F6A       0.136000
     30 H10          1.9510    -0.9850     0.2120 ha         1 F6A       0.110000
     31 H12          4.2670     2.4950    -0.7300 ha         1 F6A       0.118000
     32 H13          2.2010     3.6890    -1.3030 ha         1 F6A       0.117000
     33 H14          0.0170     2.6060    -1.1100 ha         1 F6A       0.148000
     34 H16          5.6650     0.7800    -1.4480 ha         1 F6A       0.113500
     35 H17          7.7120    -0.4370    -0.8670 ha         1 F6A       0.113000
     36 H18          7.7270    -2.0210     1.0380 ha         1 F6A       0.113000
     37 H19          5.6620    -2.3540     2.3660 ha         1 F6A       0.113000
     38 H20          3.6180    -1.1200     1.8050 ha         1 F6A       0.113500
     39 C1          -4.1080     0.7720     0.7730 c3         1 F6A       0.358300
@<TRIPOS>BOND
     1     1    12 1   
     2     1    13 1   
     3     1    25 1   
     4     2    12 2   
     5     3    39 1   
     6     4     6 ar  
     7     4    11 ar  
     8     4    39 1   
     9     5    39 1   
    10     6     8 ar  
    11     6    12 1   
    12     7    39 1   
    13     8     9 ar  
    14     8    26 1   
    15     9    10 ar  
    16     9    27 1   
    17    10    11 ar  
    18    10    28 1   
    19    11    29 1   
    20    13    14 ar  
    21    13    18 ar  
    22    14    15 ar  
    23    14    30 1   
    24    15    16 ar  
    25    15    19 1   
    26    16    17 ar  
    27    16    31 1   
    28    17    18 ar  
    29    17    32 1   
    30    18    33 1   
    31    19    20 ar  
    32    19    24 ar  
    33    20    21 ar  
    34    20    34 1   
    35    21    22 ar  
    36    21    35 1   
    37    22    23 ar  
    38    22    36 1   
    39    23    24 ar  
    40    23    37 1   
    41    24    38 1   
@<TRIPOS>SUBSTRUCTURE
     1 F6A         1 TEMP              0 ****  ****    0 ROOT
