@<TRIPOS>MOLECULE
F6B
   34    35     1     0     0
SMALL
abcg2


@<TRIPOS>ATOM
      1 C01         -1.8800    -1.8430     0.3770 ca         1 F6B      -0.096000
      2 C02         -3.1690    -1.3390     0.3170 ca         1 F6B      -0.018500
      3 C03         -3.3520     0.0150     0.0810 ca         1 F6B      -0.251500
      4 C04         -2.2740     0.8690    -0.1050 ca         1 F6B      -0.018500
      5 C05         -0.9910     0.3510    -0.0610 ca         1 F6B      -0.096000
      6 C06         -0.7870    -1.0080     0.1740 ca         1 F6B      -0.097600
      7 C07          0.5860    -1.6030     0.2630 c          1 F6B       0.613700
      8 O08          0.8090    -2.5480     1.0020 o          1 F6B      -0.585100
      9 N09          1.5100    -1.0300    -0.5260 ns         1 F6B      -0.502900
     10 C10          2.9060    -1.4080    -0.5360 c3         1 F6B       0.156300
     11 S11         -4.9920     0.6860    -0.0020 sy         1 F6B       1.127600
     12 NP2         -5.0780     1.4820     1.4400 n8         1 F6B      -1.009100
     13 O13         -5.0340     1.7140    -1.0310 o          1 F6B      -0.542000
     14 O14         -5.9230    -0.4290    -0.0910 o          1 F6B      -0.542000
     15 C15          3.7900    -0.2230    -0.2470 ca         1 F6B      -0.202300
     16 C16          3.8040     0.3760     1.0060 ca         1 F6B       0.210500
     17 C17          4.5800     1.4730     1.3190 ca         1 F6B      -0.172500
     18 C18          5.3900     2.0090     0.3260 ca         1 F6B      -0.051000
     19 C19          5.4150     1.4550    -0.9440 ca         1 F6B      -0.172500
     20 C20          4.6140     0.3570    -1.2000 ca         1 F6B       0.210500
     21 F21          3.0170    -0.1490     1.9540 f          1 F6B      -0.167500
     22 F22          4.6340    -0.1700    -2.4320 f          1 F6B      -0.167500
     23 H01C        -1.7300    -2.8960     0.5690 ha         1 F6B       0.130500
     24 H02C        -4.0120    -2.0010     0.4550 ha         1 F6B       0.140000
     25 H04C        -2.4200     1.9270    -0.2750 ha         1 F6B       0.140000
     26 H05C        -0.1550     1.0250    -0.1900 ha         1 F6B       0.130500
     27 H09N         1.2190    -0.3430    -1.2030 hn         1 F6B       0.320500
     28 H101         3.0550    -2.1850     0.2110 h1         1 F6B       0.076700
     29 H102         3.1620    -1.8470    -1.4990 h1         1 F6B       0.076700
     30 HNP1        -5.7820     2.2140     1.4240 hn         1 F6B       0.477000
     31 HNP2        -5.2280     0.8610     2.2290 hn         1 F6B       0.477000
     32 H17C         4.5540     1.8970     2.3130 ha         1 F6B       0.140000
     33 H18C         6.0070     2.8690     0.5460 ha         1 F6B       0.125000
     34 H19C         6.0420     1.8660    -1.7240 ha         1 F6B       0.140000
@<TRIPOS>BOND
     1     1     2 ar  
     2     1     6 ar  
     3     1    23 1   
     4     2     3 ar  
     5     2    24 1   
     6     3     4 ar  
     7     3    11 1   
     8     4     5 ar  
     9     4    25 1   
    10     5     6 ar  
    11     5    26 1   
    12     6     7 1   
    13     7     8 2   
    14     7     9 1   
    15     9    10 1   
    16     9    27 1   
    17    10    15 1   
    18    10    28 1   
    19    10    29 1   
    20    11    12 1   
    21    11    13 2   
    22    11    14 2   
    23    12    30 1   
    24    12    31 1   
    25    15    16 ar  
    26    15    20 ar  
    27    16    17 ar  
    28    16    21 1   
    29    17    18 ar  
    30    17    32 1   
    31    18    19 ar  
    32    18    33 1   
    33    19    20 ar  
    34    19    34 1   
    35    20    22 1   
@<TRIPOS>SUBSTRUCTURE
     1 F6B         1 TEMP              0 ****  ****    0 ROOT
