@<TRIPOS>MOLECULE
F6B
   34    35     1     0     0
SMALL
No Charge or Current Charge


@<TRIPOS>ATOM
      1 C01         -2.0240    -1.9100     0.0850 ca         1 F6B      -0.096000
      2 C02         -3.3110    -1.3460     0.0570 ca         1 F6B      -0.018500
      3 C03         -3.4700     0.0510    -0.0070 ca         1 F6B      -0.251500
      4 C04         -2.3300     0.8780    -0.0390 ca         1 F6B      -0.018500
      5 C05         -1.0430     0.3130    -0.0110 ca         1 F6B      -0.096000
      6 C06         -0.8690    -1.0930     0.0510 ca         1 F6B      -0.097600
      7 C07          0.5030    -1.7410     0.0820 c          1 F6B       0.613700
      8 O08          0.6530    -2.9540     0.1370 o          1 F6B      -0.585100
      9 N09          1.5910    -0.8970     0.0460 ns         1 F6B      -0.502900
     10 C10          2.9800    -1.3460     0.0690 c3         1 F6B       0.156300
     11 S11         -5.1150     0.7750    -0.0430 sy         1 F6B       1.127600
     12 NP2         -5.4580     0.9950     1.5370 n8         1 F6B      -1.009100
     13 O13         -5.0780     2.1350    -0.5760 o          1 F6B      -0.542000
     14 O14         -6.1100    -0.2050    -0.4740 o          1 F6B      -0.542000
     15 C15          3.9340    -0.1610     0.0180 ca         1 F6B      -0.202300
     16 C16          4.3820     0.4530     1.2050 ca         1 F6B       0.210500
     17 C17          5.2620     1.5460     1.1600 ca         1 F6B      -0.172500
     18 C18          5.7090     2.0420    -0.0750 ca         1 F6B      -0.051000
     19 C19          5.2670     1.4390    -1.2640 ca         1 F6B      -0.172500
     20 C20          4.3870     0.3460    -1.2160 ca         1 F6B       0.210500
     21 F21          3.9650    -0.0030     2.4080 f          1 F6B      -0.167500
     22 F22          3.9740    -0.2140    -2.3750 f          1 F6B      -0.167500
     23 H01C        -1.9270    -2.9920     0.1340 ha         1 F6B       0.130500
     24 H02C        -4.1810    -2.0010     0.0860 ha         1 F6B       0.140000
     25 H04C        -2.4360     1.9610    -0.0840 ha         1 F6B       0.140000
     26 H05C        -0.1910     0.9860    -0.0380 ha         1 F6B       0.130500
     27 H09N         1.4080     0.0960     0.0010 hn         1 F6B       0.320500
     28 H101         3.1520    -1.9340     0.9810 h1         1 F6B       0.076700
     29 H102         3.1560    -2.0120    -0.7870 h1         1 F6B       0.076700
     30 HNP1        -5.7270     1.9770     1.5290 hn         1 F6B       0.477000
     31 HNP2        -6.3610     0.5290     1.5940 hn         1 F6B       0.477000
     32 H17C         5.5970     2.0070     2.0860 ha         1 F6B       0.140000
     33 H18C         6.3910     2.8900    -0.1120 ha         1 F6B       0.125000
     34 H19C         5.6050     1.8160    -2.2260 ha         1 F6B       0.140000
@<TRIPOS>BOND
     1     1     2 ar  
     2     1     6 ar  
     3     1    23 1   
     4     2     3 ar  
     5     2    24 1   
     6     3     4 ar  
     7     3    11 1   
     8     4     5 ar  
     9     4    25 1   
    10     5     6 ar  
    11     5    26 1   
    12     6     7 1   
    13     7     8 2   
    14     7     9 1   
    15     9    10 1   
    16     9    27 1   
    17    10    15 1   
    18    10    28 1   
    19    10    29 1   
    20    11    12 1   
    21    11    13 2   
    22    11    14 2   
    23    12    30 1   
    24    12    31 1   
    25    15    16 ar  
    26    15    20 ar  
    27    16    17 ar  
    28    16    21 1   
    29    17    18 ar  
    30    17    32 1   
    31    18    19 ar  
    32    18    33 1   
    33    19    20 ar  
    34    19    34 1   
    35    20    22 1   
@<TRIPOS>SUBSTRUCTURE
     1 F6B         1 TEMP              0 ****  ****    0 ROOT
