@<TRIPOS>MOLECULE
F6D
   59    62     1     0     0
SMALL
abcg2


@<TRIPOS>ATOM
      1 C1           6.4030    -1.2720     0.8020 ca         1 F6D       0.141100
      2 C2           7.7860    -1.4120     0.7210 ca         1 F6D      -0.196000
      3 C3           8.4050    -1.4620    -0.5230 ca         1 F6D      -0.068000
      4 C11          0.7360     2.2520    -2.5000 cc         1 F6D       0.458300
      5 C12          1.0030     2.8290    -3.8540 c3         1 F6D      -0.152400
      6 C13         -0.7520     1.7800    -0.8810 cd         1 F6D       0.491500
      7 C14         -1.5320     1.1000     0.9430 cc         1 F6D       0.780200
      8 C15         -3.8360     0.9100     1.6810 c3         1 F6D       0.290800
      9 C16         -4.5870     0.9460     3.0190 c3         1 F6D      -0.023300
     10 C17         -4.1870     2.0860     3.8290 c1         1 F6D       0.300900
     11 C18         -4.3580    -0.2370     0.8390 ca         1 F6D      -0.105300
     12 C19         -3.8850    -1.5330     1.0090 ca         1 F6D      -0.103000
     13 C20         -4.4010    -2.5710     0.2470 ca         1 F6D      -0.101000
     14 C21         -5.3950    -2.3330    -0.6920 ca         1 F6D      -0.097000
     15 C22         -5.8600    -1.0370    -0.8510 ca         1 F6D       0.122000
     16 C23         -5.3530     0.0100    -0.0990 ca         1 F6D      -0.080000
     17 CL          -7.0970    -0.7140    -2.0220 cl         1 F6D      -0.200000
     18 N5          -3.8760     2.9910     4.4680 n1         1 F6D      -0.451000
     19 N4          -2.4210     0.8640     1.9420 nu         1 F6D      -0.864400
     20 N3          -1.8930     1.6880    -0.2120 nc         1 F6D      -0.446300
     21 N6          -0.2500     0.7960     1.0710 nd         1 F6D      -0.708100
     22 N7           0.2440     1.2420    -0.1060 na         1 F6D       0.032900
     23 N2          -0.5270     2.2870    -2.0820 nd         1 F6D      -0.704000
     24 C10          1.7880     1.7200    -1.7560 cc         1 F6D      -0.355000
     25 C9           1.5390     1.1860    -0.4910 cd         1 F6D       0.419000
     26 C8           3.8140     0.4470     0.1240 c3         1 F6D       0.186800
     27 C7           4.1250    -1.0120    -0.2710 c3         1 F6D       0.205800
     28 N            3.4540    -1.4400    -1.4830 n8         1 F6D      -1.003200
     29 C6           5.6260    -1.1880    -0.3650 ca         1 F6D      -0.113300
     30 O            5.7290    -1.2170     1.9690 os         1 F6D      -0.356100
     31 C            6.4460    -1.3430     3.1800 c3         1 F6D       0.148900
     32 C5           6.2740    -1.2490    -1.5910 ca         1 F6D      -0.056000
     33 C4           7.6550    -1.3810    -1.6820 ca         1 F6D      -0.147000
     34 H1           8.3940    -1.4850     1.6120 ha         1 F6D       0.119000
     35 H2           9.4820    -1.5660    -0.5720 ha         1 F6D       0.114000
     36 H3           0.6970     3.8760    -3.8870 hc         1 F6D       0.058367
     37 H4           2.0560     2.7720    -4.1210 hc         1 F6D       0.058367
     38 H5           0.4260     2.3010    -4.6130 hc         1 F6D       0.058367
     39 H6          -4.0500     1.8420     1.1560 h1         1 F6D       0.101700
     40 H7          -5.6610     1.0100     2.8400 hc         1 F6D       0.078200
     41 H8          -4.4140     0.0330     3.5940 hc         1 F6D       0.078200
     42 H9          -3.1060    -1.7410     1.7320 ha         1 F6D       0.112000
     43 H10         -4.0270    -3.5770     0.3800 ha         1 F6D       0.118000
     44 H11         -5.7930    -3.1400    -1.2910 ha         1 F6D       0.130000
     45 H12         -5.7250     1.0170    -0.2460 ha         1 F6D       0.135000
     46 H13         -2.0970     0.2560     2.6790 hn         1 F6D       0.490000
     47 H14          2.7910     1.7380    -2.1540 ha         1 F6D       0.136000
     48 H15          2.0280     0.3170     1.2390 hn         1 F6D       0.529000
     49 H16          4.1560     1.1200    -0.6640 h1         1 F6D       0.068700
     50 H17          4.3530     0.7260     1.0290 h1         1 F6D       0.068700
     51 H18          3.7520    -1.6540     0.5320 h1         1 F6D       0.079700
     52 H19          2.4600    -1.5200    -1.3170 hn         1 F6D       0.403500
     53 H20          3.5670    -0.7620    -2.2270 hn         1 F6D       0.403500
     54 H22          5.7120    -1.2890     3.9810 h1         1 F6D       0.042367
     55 H23          6.9700    -2.3000     3.2450 h1         1 F6D       0.042367
     56 H24          7.1700    -0.5350     3.3130 h1         1 F6D       0.042367
     57 H25          5.6910    -1.2030    -2.5020 ha         1 F6D       0.122000
     58 H26          8.1330    -1.4260    -2.6520 ha         1 F6D       0.118000
     59 N1           2.4070     0.6600     0.3680 nu         1 F6D      -0.957200
@<TRIPOS>BOND
     1     1     2 ar  
     2     1    29 ar  
     3     1    30 1   
     4     2     3 ar  
     5     2    34 1   
     6     3    33 ar  
     7     3    35 1   
     8     4     5 1   
     9     4    23 2   
    10     4    24 1   
    11     5    36 1   
    12     5    37 1   
    13     5    38 1   
    14     6    20 2   
    15     6    22 1   
    16     6    23 1   
    17     7    19 1   
    18     7    20 1   
    19     7    21 2   
    20     8     9 1   
    21     8    11 1   
    22     8    19 1   
    23     8    39 1   
    24     9    10 1   
    25     9    40 1   
    26     9    41 1   
    27    10    18 3   
    28    11    12 ar  
    29    11    16 ar  
    30    12    13 ar  
    31    12    42 1   
    32    13    14 ar  
    33    13    43 1   
    34    14    15 ar  
    35    14    44 1   
    36    15    16 ar  
    37    15    17 1   
    38    16    45 1   
    39    19    46 1   
    40    21    22 1   
    41    22    25 1   
    42    24    25 2   
    43    24    47 1   
    44    25    59 1   
    45    26    27 1   
    46    26    49 1   
    47    26    50 1   
    48    26    59 1   
    49    27    28 1   
    50    27    29 1   
    51    27    51 1   
    52    28    52 1   
    53    28    53 1   
    54    29    32 ar  
    55    30    31 1   
    56    31    54 1   
    57    31    55 1   
    58    31    56 1   
    59    32    33 ar  
    60    32    57 1   
    61    33    58 1   
    62    48    59 1   
@<TRIPOS>SUBSTRUCTURE
     1 F6D         1 TEMP              0 ****  ****    0 ROOT
