@<TRIPOS>MOLECULE
F6D
   59    62     1     0     0
SMALL
No Charge or Current Charge


@<TRIPOS>ATOM
      1 C1           6.7620    -1.4740     0.6490 ca         1 F6D       0.141100
      2 C2           8.1490    -1.3820     0.3870 ca         1 F6D      -0.196000
      3 C3           8.6130    -0.7560    -0.7810 ca         1 F6D      -0.068000
      4 C11          0.6390     2.1460    -2.4580 cc         1 F6D       0.458300
      5 C12          1.0840     2.6520    -3.7990 c3         1 F6D      -0.152400
      6 C13         -0.8520     1.7920    -0.8670 cd         1 F6D       0.491500
      7 C14         -1.7480     1.2070     0.8890 cc         1 F6D       0.780200
      8 C15         -4.1660     1.1180     1.5540 c3         1 F6D       0.290800
      9 C16         -4.9340     1.4390     2.8570 c3         1 F6D      -0.023300
     10 C17         -4.6820     2.7980     3.3470 c1         1 F6D       0.300900
     11 C18         -4.6250    -0.1860     0.8990 ca         1 F6D      -0.105300
     12 C19         -4.7110    -1.3900     1.6340 ca         1 F6D      -0.103000
     13 C20         -5.1230    -2.5800     1.0090 ca         1 F6D      -0.101000
     14 C21         -5.4490    -2.5820    -0.3570 ca         1 F6D      -0.097000
     15 C22         -5.3580    -1.3930    -1.0970 ca         1 F6D       0.122000
     16 C23         -4.9470    -0.2020    -0.4750 ca         1 F6D      -0.080000
     17 Cl          -5.7560    -1.3940    -2.8110 cl         1 F6D      -0.200000
     18 N5          -4.5140     3.8810     3.7430 n1         1 F6D      -0.451000
     19 N4          -2.7200     1.0340     1.8020 nu         1 F6D      -0.864400
     20 N3          -2.0230     1.8330    -0.2910 nc         1 F6D      -0.446300
     21 N6          -0.5410     0.7640     1.1610 nd         1 F6D      -0.708100
     22 N7           0.0250     1.1630    -0.0260 na         1 F6D       0.032900
     23 N2          -0.6360     2.3230    -2.1180 nd         1 F6D      -0.704000
     24 C10          1.6430     1.5050    -1.6480 cc         1 F6D      -0.355000
     25 C9           1.3570     1.0010    -0.4000 cd         1 F6D       0.419000
     26 C8           3.7340     0.3940     0.3530 c3         1 F6D       0.186800
     27 C7           4.3260    -1.0040    -0.0200 c3         1 F6D       0.205800
     28 N            3.6030    -1.6140    -1.1640 n8         1 F6D      -1.003200
     29 C6           5.8360    -0.9360    -0.2790 ca         1 F6D      -0.113300
     30 O            6.2840    -2.0700     1.8020 os         1 F6D      -0.356100
     31 C            7.1510    -2.6380     2.8000 c3         1 F6D       0.148900
     32 C5           6.3190    -0.3000    -1.4440 ca         1 F6D      -0.056000
     33 C4           7.6980    -0.2130    -1.6930 ca         1 F6D      -0.147000
     34 H1           8.8830    -1.7870     1.0780 ha         1 F6D       0.119000
     35 H2           9.6810    -0.6880    -0.9760 ha         1 F6D       0.114000
     36 H3           0.2640     3.1300    -4.3470 hc         1 F6D       0.058367
     37 H4           1.8870     3.3890    -3.6850 hc         1 F6D       0.058367
     38 H5           1.4640     1.8280    -4.4150 hc         1 F6D       0.058367
     39 H6          -4.3770     1.9390     0.8510 h1         1 F6D       0.101700
     40 H7          -6.0090     1.3390     2.6720 hc         1 F6D       0.078200
     41 H8          -4.6740     0.7260     3.6460 hc         1 F6D       0.078200
     42 H9          -4.4520    -1.4130     2.6900 ha         1 F6D       0.112000
     43 H10         -5.1870    -3.5020     1.5840 ha         1 F6D       0.118000
     44 H11         -5.7660    -3.5010    -0.8430 ha         1 F6D       0.130000
     45 H12         -4.8770     0.7080    -1.0670 ha         1 F6D       0.135000
     46 H13         -2.3960     0.4290     2.5480 hn         1 F6D       0.490000
     47 H14          2.6410     1.4270    -2.0560 ha         1 F6D       0.136000
     48 H15          1.8170     0.1210     1.3290 hn         1 F6D       0.529000
     49 H16          4.0720     1.1360    -0.3830 h1         1 F6D       0.068700
     50 H17          4.1580     0.6990     1.3200 h1         1 F6D       0.068700
     51 H18          4.1330    -1.6550     0.8440 h1         1 F6D       0.079700
     52 H19          2.6120    -1.3970    -0.9970 hn         1 F6D       0.403500
     53 H20          3.8130    -1.0710    -2.0050 hn         1 F6D       0.403500
     54 H22          6.5600    -3.0550     3.6250 h1         1 F6D       0.042367
     55 H23          7.7580    -3.4480     2.3740 h1         1 F6D       0.042367
     56 H24          7.8220    -1.8750     3.2150 h1         1 F6D       0.042367
     57 H25          5.6250     0.1340    -2.1610 ha         1 F6D       0.122000
     58 H26          8.0570     0.2770    -2.5960 ha         1 F6D       0.118000
     59 N1           2.2480     0.3740     0.4340 nu         1 F6D      -0.957200
@<TRIPOS>BOND
     1     1     2 ar  
     2     1    29 ar  
     3     1    30 1   
     4     2     3 ar  
     5     2    34 1   
     6     3    33 ar  
     7     3    35 1   
     8     4     5 1   
     9     4    23 2   
    10     4    24 1   
    11     5    36 1   
    12     5    37 1   
    13     5    38 1   
    14     6    20 2   
    15     6    22 1   
    16     6    23 1   
    17     7    19 1   
    18     7    20 1   
    19     7    21 2   
    20     8     9 1   
    21     8    11 1   
    22     8    19 1   
    23     8    39 1   
    24     9    10 1   
    25     9    40 1   
    26     9    41 1   
    27    10    18 3   
    28    11    12 ar  
    29    11    16 ar  
    30    12    13 ar  
    31    12    42 1   
    32    13    14 ar  
    33    13    43 1   
    34    14    15 ar  
    35    14    44 1   
    36    15    16 ar  
    37    15    17 1   
    38    16    45 1   
    39    19    46 1   
    40    21    22 1   
    41    22    25 1   
    42    24    25 2   
    43    24    47 1   
    44    25    59 1   
    45    26    27 1   
    46    26    49 1   
    47    26    50 1   
    48    26    59 1   
    49    27    28 1   
    50    27    29 1   
    51    27    51 1   
    52    28    52 1   
    53    28    53 1   
    54    29    32 ar  
    55    30    31 1   
    56    31    54 1   
    57    31    55 1   
    58    31    56 1   
    59    32    33 ar  
    60    32    57 1   
    61    33    58 1   
    62    48    59 1   
@<TRIPOS>SUBSTRUCTURE
     1 F6D         1 TEMP              0 ****  ****    0 ROOT
