@<TRIPOS>MOLECULE
F6E
   59    62     1     0     0
SMALL
abcg2


@<TRIPOS>ATOM
      1 N1          72.6480   109.2340    20.9240 n          1 F6E      -0.393800
      2 C2          73.0370   109.3920    19.5330 c3         1 F6E       0.094000
      3 N3          74.8340   113.1360    22.1830 na         1 F6E      -0.307500
      4 C4          72.4360   106.8080    20.4500 c3         1 F6E      -0.154700
      5 C5          71.6540   105.5480    20.8350 c3         1 F6E      -0.015100
      6 C6          71.9450   104.3710    19.9410 ca         1 F6E      -0.077300
      7 C9          72.5050   102.1790    18.2370 cp         1 F6E      -0.037000
      8 C11         74.0080   100.3350    17.4490 ca         1 F6E      -0.100500
      9 C12         74.2830    99.2570    16.6170 ca         1 F6E      -0.111500
     10 C13         73.3530    98.8500    15.6650 ca         1 F6E      -0.109000
     11 C14         72.1460    99.5350    15.5530 ca         1 F6E      -0.111500
     12 C15         71.8720   100.6140    16.3850 ca         1 F6E      -0.100500
     13 C16         71.7940   103.2930    17.7730 ca         1 F6E      -0.101500
     14 C24         76.1640   108.5610    22.6940 c3         1 F6E      -0.084100
     15 O1          72.3990   109.9320    23.0590 o          1 F6E      -0.624100
     16 C18         72.9000   110.1000    21.9360 c          1 F6E       0.550600
     17 C19         73.7850   111.2710    21.7390 cc         1 F6E       0.179500
     18 C21         73.9060   112.2720    22.6800 cd         1 F6E      -0.142000
     19 C20         75.2540   112.6530    20.9820 cd         1 F6E       0.391400
     20 N2          74.6430   111.5310    20.6830 nc         1 F6E      -0.669000
     21 C1          74.2560   108.5230    19.1180 c3         1 F6E       0.090000
     22 N           74.7340   107.5630    20.1160 n          1 F6E      -0.403800
     23 C22         76.1800   107.5290    20.3540 c3         1 F6E       0.102000
     24 C23         76.6750   108.6560    21.2590 c3         1 F6E      -0.095400
     25 C3          71.8710   108.0280    21.1980 c3         1 F6E       0.098000
     26 C           73.9250   106.6920    20.7620 c          1 F6E       0.573000
     27 O           74.3450   105.8830    21.5940 o          1 F6E      -0.572000
     28 C17         71.5210   104.3650    18.6100 ca         1 F6E      -0.101000
     29 C8          72.9260   102.1850    19.5710 ca         1 F6E      -0.101500
     30 C7          72.6490   103.2600    20.4050 ca         1 F6E      -0.101000
     31 C10         72.7980   101.0330    17.3480 cp         1 F6E      -0.032000
     32 H1          73.2690   110.4310    19.3410 h1         1 F6E       0.062700
     33 H2          72.1730   109.1220    18.9260 h1         1 F6E       0.062700
     34 H3          75.1510   113.9840    22.6300 hn         1 F6E       0.359000
     35 H4          72.3120   106.9620    19.3770 hc         1 F6E       0.062700
     36 H5          70.5890   105.7920    20.7730 hc         1 F6E       0.060200
     37 H6          71.8720   105.2920    21.8720 hc         1 F6E       0.060200
     38 H7          74.7480   100.6520    18.1720 ha         1 F6E       0.114000
     39 H8          75.2280    98.7370    16.7080 ha         1 F6E       0.111500
     40 H9          73.5660    98.0100    15.0160 ha         1 F6E       0.112000
     41 H10         71.4110    99.2240    14.8200 ha         1 F6E       0.111500
     42 H11         70.9210   101.1240    16.3000 ha         1 F6E       0.114000
     43 H12         71.4640   103.3270    16.7430 ha         1 F6E       0.113000
     44 H13         76.5110   109.4100    23.2860 hc         1 F6E       0.036700
     45 H14         75.0730   108.5580    22.7250 hc         1 F6E       0.036700
     46 H15         76.5110   107.6450    23.1750 hc         1 F6E       0.036700
     47 H16         73.4210   112.4240    23.6260 h4         1 F6E       0.179000
     48 H17         75.9980   113.1530    20.3830 h5         1 F6E       0.060100
     49 H19         74.0240   108.0050    18.1840 h1         1 F6E       0.050200
     50 H20         75.0910   109.1890    18.9220 h1         1 F6E       0.050200
     51 H21         76.4170   106.5610    20.7900 h1         1 F6E       0.054700
     52 H22         76.6740   107.5910    19.3810 h1         1 F6E       0.054700
     53 H23         77.7690   108.6260    21.2520 hc         1 F6E       0.042700
     54 H24         76.3830   109.6160    20.8290 hc         1 F6E       0.042700
     55 H25         70.8300   108.1780    20.8950 h1         1 F6E       0.066700
     56 H26         71.8890   107.8490    22.2700 h1         1 F6E       0.066700
     57 H27         70.9720   105.2150    18.2210 ha         1 F6E       0.116000
     58 H28         73.4590   101.3300    19.9680 ha         1 F6E       0.113000
     59 H29         72.9840   103.2380    21.4340 ha         1 F6E       0.116000
@<TRIPOS>BOND
     1     1     2 1   
     2     1    16 1   
     3     1    25 1   
     4     2    21 1   
     5     2    32 1   
     6     2    33 1   
     7     3    18 1   
     8     3    19 1   
     9     3    34 1   
    10     4     5 1   
    11     4    25 1   
    12     4    26 1   
    13     4    35 1   
    14     5     6 1   
    15     5    36 1   
    16     5    37 1   
    17     6    28 ar  
    18     6    30 ar  
    19     7    13 ar  
    20     7    29 ar  
    21     7    31 1   
    22     8     9 ar  
    23     8    31 ar  
    24     8    38 1   
    25     9    10 ar  
    26     9    39 1   
    27    10    11 ar  
    28    10    40 1   
    29    11    12 ar  
    30    11    41 1   
    31    12    31 ar  
    32    12    42 1   
    33    13    28 ar  
    34    13    43 1   
    35    14    24 1   
    36    14    44 1   
    37    14    45 1   
    38    14    46 1   
    39    15    16 2   
    40    16    17 1   
    41    17    18 2   
    42    17    20 1   
    43    18    47 1   
    44    19    20 2   
    45    19    48 1   
    46    21    22 1   
    47    21    49 1   
    48    21    50 1   
    49    22    23 1   
    50    22    26 1   
    51    23    24 1   
    52    23    51 1   
    53    23    52 1   
    54    24    53 1   
    55    24    54 1   
    56    25    55 1   
    57    25    56 1   
    58    26    27 2   
    59    28    57 1   
    60    29    30 ar  
    61    29    58 1   
    62    30    59 1   
@<TRIPOS>SUBSTRUCTURE
     1 F6E         1 TEMP              0 ****  ****    0 ROOT
