@<TRIPOS>MOLECULE
F6E
   59    62     1     0     0
SMALL
No Charge or Current Charge


@<TRIPOS>ATOM
      1 N1          72.6960   109.2560    20.9570 n          1 F6E      -0.393800
      2 C2          73.1160   109.4100    19.5360 c3         1 F6E       0.094000
      3 N3          74.7560   113.3540    22.1860 na         1 F6E      -0.307500
      4 C4          72.4290   106.7540    20.5050 c3         1 F6E      -0.154700
      5 C5          71.6210   105.4850    20.8860 c3         1 F6E      -0.015100
      6 C6          71.9160   104.3090    19.9610 ca         1 F6E      -0.077300
      7 C9          72.4720   102.1180    18.2220 cp         1 F6E      -0.037000
      8 C11         73.9980   100.2700    17.3800 ca         1 F6E      -0.100500
      9 C12         74.2750    99.1920    16.5210 ca         1 F6E      -0.111500
     10 C13         73.3230    98.7860    15.5720 ca         1 F6E      -0.109000
     11 C14         72.0950    99.4610    15.4820 ca         1 F6E      -0.111500
     12 C15         71.8200   100.5400    16.3400 ca         1 F6E      -0.100500
     13 C16         71.7070   103.2280    17.7830 ca         1 F6E      -0.101500
     14 C24         76.1810   108.5190    22.7310 c3         1 F6E      -0.084100
     15 O1          72.0540   110.2360    22.9270 o          1 F6E      -0.624100
     16 C18         72.7630   110.3050    21.9240 c          1 F6E       0.550600
     17 C19         73.7280   111.4660    21.7270 cc         1 F6E       0.179500
     18 C21         73.7600   112.4990    22.6320 cd         1 F6E      -0.142000
     19 C20         75.2960   112.8090    21.0400 cd         1 F6E       0.391400
     20 N2          74.6900   111.6670    20.7540 nc         1 F6E      -0.669000
     21 C1          74.3380   108.5480    19.1110 c3         1 F6E       0.090000
     22 N           74.8210   107.5470    20.1050 n          1 F6E      -0.403800
     23 C22         76.2850   107.5030    20.3490 c3         1 F6E       0.102000
     24 C23         76.7910   108.5960    21.3160 c3         1 F6E      -0.095400
     25 C3          71.9540   108.0050    21.2880 c3         1 F6E       0.098000
     26 C           73.9530   106.6190    20.7390 c          1 F6E       0.573000
     27 O           74.3910   105.8250    21.5630 o          1 F6E      -0.572000
     28 C17         71.4330   104.3080    18.6400 ca         1 F6E      -0.101000
     29 C8          72.9490   102.1350    19.5570 ca         1 F6E      -0.101500
     30 C7          72.6740   103.2140    20.4150 ca         1 F6E      -0.101000
     31 C10         72.7650   100.9680    17.3080 cp         1 F6E      -0.032000
     32 H1          73.2650   110.4570    19.2590 h1         1 F6E       0.062700
     33 H2          72.2660   109.1010    18.9140 h1         1 F6E       0.062700
     34 H3          75.0520   114.2240    22.6130 hn         1 F6E       0.359000
     35 H4          72.2490   106.9660    19.4470 hc         1 F6E       0.062700
     36 H5          70.5500   105.7170    20.8320 hc         1 F6E       0.060200
     37 H6          71.8150   105.2200    21.9330 hc         1 F6E       0.060200
     38 H7          74.7550   100.5760    18.0980 ha         1 F6E       0.114000
     39 H8          75.2280    98.6720    16.5910 ha         1 F6E       0.111500
     40 H9          73.5360    97.9510    14.9080 ha         1 F6E       0.112000
     41 H10         71.3550    99.1460    14.7500 ha         1 F6E       0.111500
     42 H11         70.8580   101.0400    16.2620 ha         1 F6E       0.114000
     43 H12         71.3330   103.2610    16.7630 ha         1 F6E       0.113000
     44 H13         76.6030   109.3030    23.3710 hc         1 F6E       0.036700
     45 H14         75.0940   108.6550    22.6990 hc         1 F6E       0.036700
     46 H15         76.3950   107.5470    23.1930 hc         1 F6E       0.036700
     47 H16         73.1690   112.6710    23.5250 h4         1 F6E       0.179000
     48 H17         76.1030   113.2810    20.4900 h5         1 F6E       0.060100
     49 H19         74.0970   108.0260    18.1760 h1         1 F6E       0.050200
     50 H20         75.1610   109.2380    18.8830 h1         1 F6E       0.050200
     51 H21         76.5770   106.5180    20.7350 h1         1 F6E       0.054700
     52 H22         76.8000   107.6230    19.3860 h1         1 F6E       0.054700
     53 H23         77.8810   108.5130    21.3970 hc         1 F6E       0.042700
     54 H24         76.5840   109.5830    20.8880 hc         1 F6E       0.042700
     55 H25         70.8860   108.1740    21.0940 h1         1 F6E       0.066700
     56 H26         72.0660   107.7960    22.3610 h1         1 F6E       0.066700
     57 H27         70.8450   105.1470    18.2740 ha         1 F6E       0.116000
     58 H28         73.5280   101.2980    19.9370 ha         1 F6E       0.113000
     59 H29         73.0550   103.1980    21.4330 ha         1 F6E       0.116000
@<TRIPOS>BOND
     1     1     2 1   
     2     1    16 1   
     3     1    25 1   
     4     2    21 1   
     5     2    32 1   
     6     2    33 1   
     7     3    18 1   
     8     3    19 1   
     9     3    34 1   
    10     4     5 1   
    11     4    25 1   
    12     4    26 1   
    13     4    35 1   
    14     5     6 1   
    15     5    36 1   
    16     5    37 1   
    17     6    28 ar  
    18     6    30 ar  
    19     7    13 ar  
    20     7    29 ar  
    21     7    31 1   
    22     8     9 ar  
    23     8    31 ar  
    24     8    38 1   
    25     9    10 ar  
    26     9    39 1   
    27    10    11 ar  
    28    10    40 1   
    29    11    12 ar  
    30    11    41 1   
    31    12    31 ar  
    32    12    42 1   
    33    13    28 ar  
    34    13    43 1   
    35    14    24 1   
    36    14    44 1   
    37    14    45 1   
    38    14    46 1   
    39    15    16 2   
    40    16    17 1   
    41    17    18 2   
    42    17    20 1   
    43    18    47 1   
    44    19    20 2   
    45    19    48 1   
    46    21    22 1   
    47    21    49 1   
    48    21    50 1   
    49    22    23 1   
    50    22    26 1   
    51    23    24 1   
    52    23    51 1   
    53    23    52 1   
    54    24    53 1   
    55    24    54 1   
    56    25    55 1   
    57    25    56 1   
    58    26    27 2   
    59    28    57 1   
    60    29    30 ar  
    61    29    58 1   
    62    30    59 1   
@<TRIPOS>SUBSTRUCTURE
     1 F6E         1 TEMP              0 ****  ****    0 ROOT
