@<TRIPOS>MOLECULE
F6I
   46    49     1     0     0
SMALL
bcc


@<TRIPOS>ATOM
      1 C10        -18.6710     0.4740    32.6910 ca         1 F6I      -0.029000
      2 C15        -21.0750     4.7820    34.7270 c6         1 F6I       0.205800
      3 C17        -22.2760     6.9400    34.9500 c          1 F6I       0.706100
      4 C20        -20.0580     8.0040    35.3560 cc         1 F6I       0.550400
      5 C26        -23.7940     5.2610    37.2730 ca         1 F6I      -0.111000
      6 C28        -25.3990     3.5110    36.9430 ca         1 F6I      -0.115000
      7 C02        -16.7760     1.8540    33.5320 c3         1 F6I       0.723200
      8 F03        -15.8690     1.6470    32.5680 f          1 F6I      -0.230300
      9 F04        -16.5260     3.0580    34.0520 f          1 F6I      -0.230300
     10 C05        -18.1730     1.7360    33.0050 ca         1 F6I      -0.216300
     11 C06        -18.9490     2.8660    32.8030 ca         1 F6I       0.012000
     12 C07        -20.2340     2.7140    32.2980 ca         1 F6I      -0.313500
     13 C08        -20.7440     1.4630    31.9800 ca         1 F6I      -0.007000
     14 C09        -19.9500     0.3430    32.1780 ca         1 F6I      -0.153000
     15 S11        -21.2760     4.1440    32.1470 sy         1 F6I       1.309200
     16 O12        -22.3560     3.8140    31.2370 o          1 F6I      -0.598800
     17 O13        -20.4380     5.3010    31.8940 o          1 F6I      -0.598800
     18 N14        -21.9460     4.3530    33.6410 n3         1 F6I      -0.726500
     19 C16        -21.9080     5.6540    35.6660 c6         1 F6I      -0.081400
     20 N19        -21.3160     7.9280    34.8340 ns         1 F6I      -0.563400
     21 N21        -19.2980     9.0990    35.2550 na         1 F6I      -0.206400
     22 N22        -18.1340     8.8610    35.8500 nc         1 F6I      -0.190800
     23 N23        -18.1920     7.6750    36.2920 nd         1 F6I      -0.021000
     24 N24        -19.3650     7.1000    36.0080 nd         1 F6I      -0.451000
     25 C25        -23.1450     4.9110    36.0920 ca         1 F6I      -0.061300
     26 C27        -24.9160     4.5720    37.7000 ca         1 F6I      -0.122000
     27 C29        -24.7570     3.1560    35.7690 ca         1 F6I      -0.126000
     28 C30        -23.6310     3.8510    35.3330 ca         1 F6I      -0.063300
     29 C31        -22.9580     3.3940    34.0640 c6         1 F6I       0.245100
     30 H1         -18.0680    -0.4120    32.8420 ha         1 F6I       0.152000
     31 H2         -20.6900     3.9220    35.2860 h1         1 F6I       0.073700
     32 H3         -20.2190     5.3310    34.3430 h1         1 F6I       0.073700
     33 H4         -23.4070     6.0830    37.8650 ha         1 F6I       0.132000
     34 H5         -26.2730     2.9620    37.2680 ha         1 F6I       0.135000
     35 H6         -18.5610     3.8500    33.0280 ha         1 F6I       0.169000
     36 H7         -21.7420     1.3540    31.5800 ha         1 F6I       0.160000
     37 H8         -20.3330    -0.6370    31.9300 ha         1 F6I       0.147000
     38 H9         -21.2970     5.8790    36.5420 hc         1 F6I       0.107700
     39 H10        -21.6260     8.7390    34.3110 hn         1 F6I       0.332500
     40 H11        -19.4940     9.9920    34.8210 hn         1 F6I       0.339700
     41 H12        -25.4090     4.8550    38.6220 ha         1 F6I       0.136000
     42 H13        -25.1320     2.3270    35.1800 ha         1 F6I       0.132000
     43 H14        -23.7050     3.2850    33.2800 h1         1 F6I       0.064200
     44 H15        -22.5130     2.4040    34.2360 h1         1 F6I       0.064200
     45 O18        -23.3590     7.1250    34.4490 o          1 F6I      -0.523100
     46 F01        -16.5360     0.9510    34.4890 f          1 F6I      -0.230300
@<TRIPOS>BOND
     1     1    10 ar  
     2     1    14 ar  
     3     1    30 1   
     4     2    18 1   
     5     2    19 1   
     6     2    31 1   
     7     2    32 1   
     8     3    19 1   
     9     3    20 1   
    10     3    45 2   
    11     4    20 1   
    12     4    21 1   
    13     4    24 2   
    14     5    25 ar  
    15     5    26 ar  
    16     5    33 1   
    17     6    26 ar  
    18     6    27 ar  
    19     6    34 1   
    20     7     8 1   
    21     7     9 1   
    22     7    10 1   
    23     7    46 1   
    24    10    11 ar  
    25    11    12 ar  
    26    11    35 1   
    27    12    13 ar  
    28    12    15 1   
    29    13    14 ar  
    30    13    36 1   
    31    14    37 1   
    32    15    16 2   
    33    15    17 2   
    34    15    18 1   
    35    18    29 1   
    36    19    25 1   
    37    19    38 1   
    38    20    39 1   
    39    21    22 1   
    40    21    40 1   
    41    22    23 2   
    42    23    24 1   
    43    25    28 ar  
    44    26    41 1   
    45    27    28 ar  
    46    27    42 1   
    47    28    29 1   
    48    29    43 1   
    49    29    44 1   
@<TRIPOS>SUBSTRUCTURE
     1 F6I         1 TEMP              0 ****  ****    0 ROOT
