@<TRIPOS>MOLECULE
F6I
   46    49     1     0     0
SMALL
No Charge or Current Charge


@<TRIPOS>ATOM
      1 C10        -17.3220     3.1120    33.1600 ca         1 F6I      -0.011000
      2 C15        -21.8730     3.3600    35.0840 c6         1 F6I       0.205800
      3 C17        -21.2960     5.8340    35.1500 c          1 F6I       0.639100
      4 C20        -19.0790     5.1430    36.1160 cc         1 F6I       0.550400
      5 C26        -24.2120     5.9790    36.6330 ca         1 F6I      -0.093000
      6 C28        -26.4050     5.7020    35.6160 ca         1 F6I      -0.097000
      7 C02        -17.6240     5.4510    32.1660 c3         1 F6I       0.359300
      8 F03        -17.2870     5.4590    30.8570 f          1 F6I      -0.109000
      9 F04        -18.5260     6.4410    32.3500 f          1 F6I      -0.109000
     10 C05        -18.1720     4.0870    32.5920 ca         1 F6I      -0.216300
     11 C06        -19.5370     3.7820    32.4050 ca         1 F6I       0.030000
     12 C07        -20.0480     2.5310    32.8000 ca         1 F6I      -0.313500
     13 C08        -19.1950     1.5690    33.3770 ca         1 F6I       0.011000
     14 C09        -17.8340     1.8640    33.5490 ca         1 F6I      -0.135000
     15 S11        -21.8110     2.2160    32.6430 sy         1 F6I       1.167600
     16 O12        -22.1420     0.8840    33.1610 o          1 F6I      -0.528000
     17 O13        -22.2150     2.6610    31.3050 o          1 F6I      -0.528000
     18 N14        -22.4510     3.3580    33.7230 n3         1 F6I      -0.726500
     19 C16        -22.1700     4.7110    35.7700 c6         1 F6I      -0.081400
     20 N19        -19.9350     5.9090    35.3610 ns         1 F6I      -0.496400
     21 N21        -17.7290     5.2930    36.1450 na         1 F6I      -0.256700
     22 N22        -17.1660     4.3940    36.9900 nc         1 F6I      -0.190800
     23 N23        -18.1780     3.7240    37.4670 nd         1 F6I      -0.021000
     24 N24        -19.3700     4.1740    36.9510 nd         1 F6I      -0.451000
     25 C25        -23.6660     5.0540    35.7220 ca         1 F6I      -0.061300
     26 C27        -25.5780     6.3020    36.5800 ca         1 F6I      -0.104000
     27 C29        -25.8660     4.7770    34.7060 ca         1 F6I      -0.108000
     28 C30        -24.4970     4.4480    34.7500 ca         1 F6I      -0.063300
     29 C31        -23.9310     3.4160    33.7600 c6         1 F6I       0.245100
     30 H1         -16.2620     3.3160    33.3030 ha         1 F6I       0.134000
     31 H2         -22.3000     2.5410    35.6830 h1         1 F6I       0.073700
     32 H3         -20.7890     3.1970    35.0670 h1         1 F6I       0.073700
     33 H4         -23.5770     6.4500    37.3810 ha         1 F6I       0.114000
     34 H5         -27.4630     5.9520    35.5760 ha         1 F6I       0.117000
     35 H6         -20.2080     4.5230    31.9690 ha         1 F6I       0.151000
     36 H7         -19.5790     0.6020    33.6990 ha         1 F6I       0.142000
     37 H8         -17.1730     1.1230    33.9920 ha         1 F6I       0.129000
     38 H9         -21.8460     4.5790    36.8070 hc         1 F6I       0.107700
     39 H10        -19.5130     6.6710    34.8530 hn         1 F6I       0.332500
     40 H11        -17.1800     5.9650    35.6260 hn         1 F6I       0.390000
     41 H12        -25.9950     7.0180    37.2850 ha         1 F6I       0.118000
     42 H13        -26.5140     4.3130    33.9660 ha         1 F6I       0.114000
     43 H14        -24.3230     3.6490    32.7590 h1         1 F6I       0.064200
     44 H15        -24.3390     2.4320    34.0370 h1         1 F6I       0.064200
     45 O18        -21.7970     6.7050    34.4550 o          1 F6I      -0.523100
     46 F01        -16.5200     5.8050    32.8620 f          1 F6I      -0.109000
@<TRIPOS>BOND
     1     1    10 ar  
     2     1    14 ar  
     3     1    30 1   
     4     2    18 1   
     5     2    19 1   
     6     2    31 1   
     7     2    32 1   
     8     3    19 1   
     9     3    20 1   
    10     3    45 2   
    11     4    20 1   
    12     4    21 1   
    13     4    24 2   
    14     5    25 ar  
    15     5    26 ar  
    16     5    33 1   
    17     6    26 ar  
    18     6    27 ar  
    19     6    34 1   
    20     7     8 1   
    21     7     9 1   
    22     7    10 1   
    23     7    46 1   
    24    10    11 ar  
    25    11    12 ar  
    26    11    35 1   
    27    12    13 ar  
    28    12    15 1   
    29    13    14 ar  
    30    13    36 1   
    31    14    37 1   
    32    15    16 2   
    33    15    17 2   
    34    15    18 1   
    35    18    29 1   
    36    19    25 1   
    37    19    38 1   
    38    20    39 1   
    39    21    22 1   
    40    21    40 1   
    41    22    23 2   
    42    23    24 1   
    43    25    28 ar  
    44    26    41 1   
    45    27    28 ar  
    46    27    42 1   
    47    28    29 1   
    48    29    43 1   
    49    29    44 1   
@<TRIPOS>SUBSTRUCTURE
     1 F6I         1 TEMP              0 ****  ****    0 ROOT
