@<TRIPOS>MOLECULE
F6J
   49    52     1     0     0
SMALL
abcg2


@<TRIPOS>ATOM
      1 C1           6.8950     0.7440    -1.2820 c3         1 F6J      -0.081600
      2 N2          -3.4500     2.8600     0.1310 nb         1 F6J      -0.697000
      3 C5           3.1910    -0.1060    -0.5670 ca         1 F6J      -0.055300
      4 C6           2.1480     0.8160    -0.5290 ca         1 F6J      -0.122000
      5 C7           0.9610     0.5880     0.1680 ca         1 F6J      -0.069800
      6 C9           1.8750    -1.5310     0.8530 ca         1 F6J      -0.096000
      7 C10          3.0500    -1.3150     0.1340 ca         1 F6J      -0.106600
      8 C11          4.0900    -2.4300     0.1410 c          1 F6J       0.710600
      9 C12         -0.1080     1.5870     0.1730 cc         1 F6J      -0.024400
     10 C13          0.0480     2.9490     0.1980 cd         1 F6J      -0.171100
     11 C15         -4.2150     1.7840     0.0680 ca         1 F6J       0.361900
     12 C16         -3.7360     0.4610     0.0180 cp         1 F6J      -0.143000
     13 C18         -1.5250     1.3600     0.1480 ca         1 F6J      -0.125800
     14 C19         -4.6800    -0.6680    -0.0840 cp         1 F6J      -0.009000
     15 C23         -6.7040    -1.6440    -0.9820 ca         1 F6J      -0.112000
     16 C24         -5.8220    -0.5770    -0.8810 ca         1 F6J      -0.105000
     17 C2           5.6430     0.5790    -0.4290 c3         1 F6J      -0.058700
     18 C3           5.3970     1.8230     0.4170 c3         1 F6J      -0.081600
     19 C4           4.4390     0.2570    -1.3260 c3         1 F6J      -0.018100
     20 C8           0.8380    -0.6130     0.8640 ca         1 F6J      -0.124000
     21 O1           4.7010    -2.6530    -0.9210 o          1 F6J      -0.717500
     22 O2           4.2160    -3.0540     1.2130 o          1 F6J      -0.717500
     23 N1          -1.1670     3.5690     0.1930 na         1 F6J      -0.330400
     24 C14         -2.1480     2.6280     0.1600 ca         1 F6J       0.361500
     25 C17         -2.3620     0.2530     0.0610 ca         1 F6J       0.000000
     26 C20         -4.4460    -1.8580     0.6080 ca         1 F6J      -0.105000
     27 C21         -5.3240    -2.9270     0.5030 ca         1 F6J      -0.112000
     28 C22         -6.4570    -2.8240    -0.2930 ca         1 F6J      -0.119000
     29 H1           6.7820     1.5740    -1.9850 hc         1 F6J       0.021367
     30 H2           7.7740     0.9490    -0.6680 hc         1 F6J       0.021367
     31 H3           7.0990    -0.1580    -1.8640 hc         1 F6J       0.021367
     32 H4           2.2560     1.7420    -1.0830 ha         1 F6J       0.085000
     33 H5           1.7660    -2.4490     1.4170 ha         1 F6J       0.125000
     34 H6           0.9550     3.5300     0.2400 h4         1 F6J       0.217000
     35 H7          -5.2850     1.9610     0.0670 h4         1 F6J       0.009100
     36 H8          -7.5810    -1.5560    -1.6110 ha         1 F6J       0.107500
     37 H9          -6.0170     0.3270    -1.4450 ha         1 F6J       0.115500
     38 H10          5.8030    -0.2660     0.2470 hc         1 F6J       0.083700
     39 H11          4.5150     1.7190     1.0500 hc         1 F6J       0.021367
     40 H12          6.2480     2.0260     1.0720 hc         1 F6J       0.021367
     41 H13          5.2490     2.7030    -0.2140 hc         1 F6J       0.021367
     42 H14          4.7080    -0.5610    -1.9920 hc         1 F6J       0.048700
     43 H15          4.2360     1.1320    -1.9540 hc         1 F6J       0.048700
     44 H16         -0.0540    -0.8230     1.4420 ha         1 F6J       0.089000
     45 H18         -1.3140     4.5650     0.2190 hn         1 F6J       0.351000
     46 H19         -1.9590    -0.7510    -0.0010 ha         1 F6J       0.135000
     47 H20         -3.5770    -1.9440     1.2490 ha         1 F6J       0.115500
     48 H21         -5.1250    -3.8390     1.0500 ha         1 F6J       0.107500
     49 H22         -7.1420    -3.6580    -0.3770 ha         1 F6J       0.105000
@<TRIPOS>BOND
     1     1    17 1   
     2     1    29 1   
     3     1    30 1   
     4     1    31 1   
     5     2    11 ar  
     6     2    24 ar  
     7     3     4 ar  
     8     3     7 ar  
     9     3    19 1   
    10     4     5 ar  
    11     4    32 1   
    12     5     9 1   
    13     5    20 ar  
    14     6     7 ar  
    15     6    20 ar  
    16     6    33 1   
    17     7     8 1   
    18     8    21 1   
    19     8    22 1   
    20     9    10 2   
    21     9    13 1   
    22    10    23 1   
    23    10    34 1   
    24    11    12 ar  
    25    11    35 1   
    26    12    14 1   
    27    12    25 ar  
    28    13    24 ar  
    29    13    25 ar  
    30    14    16 ar  
    31    14    26 ar  
    32    15    16 ar  
    33    15    28 ar  
    34    15    36 1   
    35    16    37 1   
    36    17    18 1   
    37    17    19 1   
    38    17    38 1   
    39    18    39 1   
    40    18    40 1   
    41    18    41 1   
    42    19    42 1   
    43    19    43 1   
    44    20    44 1   
    45    23    24 1   
    46    23    45 1   
    47    25    46 1   
    48    26    27 ar  
    49    26    47 1   
    50    27    28 ar  
    51    27    48 1   
    52    28    49 1   
@<TRIPOS>SUBSTRUCTURE
     1 F6J         1 TEMP              0 ****  ****    0 ROOT
