@<TRIPOS>MOLECULE
F6J
   49    52     1     0     0
SMALL
No Charge or Current Charge


@<TRIPOS>ATOM
      1 C1           6.9420     0.7670    -1.2390 c3         1 F6J      -0.081600
      2 N2          -3.4220     2.9190     0.1870 nb         1 F6J      -0.697000
      3 C5           3.1740    -0.1520    -0.5660 ca         1 F6J      -0.055300
      4 C6           2.1380     0.8050    -0.5710 ca         1 F6J      -0.122000
      5 C7           0.9410     0.5900     0.1380 ca         1 F6J      -0.069800
      6 C9           1.8090    -1.5610     0.8860 ca         1 F6J      -0.096000
      7 C10          3.0050    -1.3550     0.1660 ca         1 F6J      -0.106600
      8 C11          4.0680    -2.4270     0.2130 c          1 F6J       0.710600
      9 C12         -0.1180     1.6000     0.1270 cc         1 F6J      -0.024400
     10 C13          0.1570     2.9530     0.2110 cd         1 F6J      -0.171100
     11 C15         -4.2210     1.8240     0.0950 ca         1 F6J       0.361900
     12 C16         -3.7440     0.4840    -0.0050 cp         1 F6J      -0.143000
     13 C18         -1.5420     1.4500     0.1130 ca         1 F6J      -0.125800
     14 C19         -4.6830    -0.6770    -0.1150 cp         1 F6J      -0.009000
     15 C23         -6.8190    -1.6370    -0.8670 ca         1 F6J      -0.112000
     16 C24         -5.9370    -0.5470    -0.7640 ca         1 F6J      -0.105000
     17 C2           5.6380     0.6040    -0.4260 c3         1 F6J      -0.058700
     18 C3           5.3130     1.8930     0.3650 c3         1 F6J      -0.081600
     19 C4           4.4620     0.1570    -1.3360 c3         1 F6J      -0.018100
     20 C8           0.7880    -0.5990     0.8720 ca         1 F6J      -0.124000
     21 O1           4.3060    -3.0550    -0.8090 o          1 F6J      -0.717500
     22 O2           4.5770    -2.6810     1.2950 o          1 F6J      -0.717500
     23 N1          -1.0800     3.6490     0.2520 na         1 F6J      -0.330400
     24 C14         -2.0940     2.7080     0.1900 ca         1 F6J       0.361500
     25 C17         -2.3370     0.3040    -0.0010 ca         1 F6J       0.000000
     26 C20         -4.3490    -1.9440     0.4280 ca         1 F6J      -0.105000
     27 C21         -5.2300    -3.0340     0.3270 ca         1 F6J      -0.112000
     28 C22         -6.4660    -2.8810    -0.3220 ca         1 F6J      -0.119000
     29 H1           6.8360     1.5560    -1.9940 hc         1 F6J       0.021367
     30 H2           7.7790     1.0330    -0.5810 hc         1 F6J       0.021367
     31 H3           7.2000    -0.1670    -1.7510 hc         1 F6J       0.021367
     32 H4           2.2660     1.7260    -1.1340 ha         1 F6J       0.085000
     33 H5           1.6760    -2.4760     1.4600 ha         1 F6J       0.125000
     34 H6           1.1170     3.4610     0.2670 h4         1 F6J       0.217000
     35 H7          -5.2910     2.0270     0.1090 h4         1 F6J       0.009100
     36 H8          -7.7750    -1.5170    -1.3720 ha         1 F6J       0.107500
     37 H9          -6.2270     0.4030    -1.2060 ha         1 F6J       0.115500
     38 H10          5.8160    -0.1910     0.3080 hc         1 F6J       0.083700
     39 H11          4.4500     1.7430     1.0240 hc         1 F6J       0.021367
     40 H12          6.1630     2.1870     0.9930 hc         1 F6J       0.021367
     41 H13          5.0860     2.7230    -0.3160 hc         1 F6J       0.021367
     42 H14          4.7680    -0.7180    -1.9200 hc         1 F6J       0.048700
     43 H15          4.2760     0.9430    -2.0790 hc         1 F6J       0.048700
     44 H16         -0.1160    -0.7740     1.4490 ha         1 F6J       0.089000
     45 H18         -1.2160     4.6500     0.3200 hn         1 F6J       0.351000
     46 H19         -1.8880    -0.6800    -0.1040 ha         1 F6J       0.135000
     47 H20         -3.4040    -2.0830     0.9480 ha         1 F6J       0.115500
     48 H21         -4.9560    -3.9970     0.7530 ha         1 F6J       0.107500
     49 H22         -7.1480    -3.7250    -0.4010 ha         1 F6J       0.105000
@<TRIPOS>BOND
     1     1    17 1   
     2     1    29 1   
     3     1    30 1   
     4     1    31 1   
     5     2    11 ar  
     6     2    24 ar  
     7     3     4 ar  
     8     3     7 ar  
     9     3    19 1   
    10     4     5 ar  
    11     4    32 1   
    12     5     9 1   
    13     5    20 ar  
    14     6     7 ar  
    15     6    20 ar  
    16     6    33 1   
    17     7     8 1   
    18     8    21 1   
    19     8    22 1   
    20     9    10 2   
    21     9    13 1   
    22    10    23 1   
    23    10    34 1   
    24    11    12 ar  
    25    11    35 1   
    26    12    14 1   
    27    12    25 ar  
    28    13    24 ar  
    29    13    25 ar  
    30    14    16 ar  
    31    14    26 ar  
    32    15    16 ar  
    33    15    28 ar  
    34    15    36 1   
    35    16    37 1   
    36    17    18 1   
    37    17    19 1   
    38    17    38 1   
    39    18    39 1   
    40    18    40 1   
    41    18    41 1   
    42    19    42 1   
    43    19    43 1   
    44    20    44 1   
    45    23    24 1   
    46    23    45 1   
    47    25    46 1   
    48    26    27 ar  
    49    26    47 1   
    50    27    28 ar  
    51    27    48 1   
    52    28    49 1   
@<TRIPOS>SUBSTRUCTURE
     1 F6J         1 TEMP              0 ****  ****    0 ROOT
