@<TRIPOS>MOLECULE
F6K
   46    47     1     0     0
SMALL
abcg2


@<TRIPOS>ATOM
      1 C4           0.3750     1.5850    -0.2600 c5         1 F6K       0.201000
      2 C6           0.2030     2.1170    -1.6670 c3         1 F6K      -0.121100
      3 C7          -0.9170     0.9710     0.3880 c5         1 F6K      -0.023600
      4 C8          -1.8650     0.2660    -0.6140 c3         1 F6K       0.177300
      5 C10         -2.9570    -1.6670     0.6370 c2         1 F6K      -0.253200
      6 C13         -5.4720    -1.1340    -0.5530 c6         1 F6K      -0.072400
      7 C21          5.2460     0.2070    -0.4750 c3         1 F6K       0.132600
      8 CL           6.3680    -1.1430    -0.8920 cl         1 F6K      -0.289000
      9 C2           2.8640     0.8820    -0.1290 c3         1 F6K      -0.054400
     10 C3           1.4020     0.4480    -0.1310 c5         1 F6K      -0.179700
     11 O5           0.7230     2.6320     0.6320 oh         1 F6K      -0.671000
     12 C19          0.9590    -0.2540     1.1390 c          1 F6K       0.577000
     13 O20          1.6280    -0.9810     1.8490 o          1 F6K      -0.543000
     14 N18         -0.3340     0.0700     1.3530 ns         1 F6K      -0.514900
     15 C16         -1.6500     2.1080     1.0880 c          1 F6K       0.598900
     16 O17         -2.3720     2.8770     0.5100 o          1 F6K      -0.511100
     17 O15         -1.1910    -0.7070    -1.3690 oh         1 F6K      -0.656000
     18 C9          -3.1560    -0.3080     0.0130 c6         1 F6K      -0.054500
     19 C14         -4.2560    -0.3660    -1.0500 c6         1 F6K      -0.072400
     20 C12         -5.1040    -2.5820    -0.2550 c6         1 F6K      -0.049200
     21 C11         -3.8170    -2.6750     0.5020 c2         1 F6K      -0.189200
     22 H1          -0.5880     2.8670    -1.7150 hc         1 F6K       0.057033
     23 H2           1.1280     2.5950    -1.9980 hc         1 F6K       0.057033
     24 H3          -0.0220     1.3250    -2.3780 hc         1 F6K       0.057033
     25 H4          -2.1700     1.0360    -1.3270 h1         1 F6K       0.092700
     26 H5          -2.0780    -1.8350     1.2510 ha         1 F6K       0.170000
     27 H6          -5.8530    -0.6580     0.3560 hc         1 F6K       0.044700
     28 H7          -6.2770    -1.0920    -1.2900 hc         1 F6K       0.044700
     29 H8           5.5600     0.5860     0.4950 h1         1 F6K       0.061200
     30 H9           5.4020     0.9840    -1.2220 h1         1 F6K       0.061200
     31 H10          3.5530    -0.6900    -1.4300 hc         1 F6K       0.067200
     32 H11          3.7020    -1.0680     0.2820 hc         1 F6K       0.067200
     33 H12          3.1340     1.3240     0.8330 hc         1 F6K       0.046200
     34 H13          3.0040     1.6620    -0.8830 hc         1 F6K       0.046200
     35 H14          1.2440    -0.2520    -0.9570 hc         1 F6K       0.096700
     36 H15          1.4440     3.1470     0.2510 ho         1 F6K       0.456000
     37 H16         -0.8450    -0.3030     2.1390 hn         1 F6K       0.330500
     38 H17         -1.4830     2.1740     2.1780 h4         1 F6K       0.010200
     39 H18         -1.1070    -1.5140    -0.8480 ho         1 F6K       0.455000
     40 H19         -3.4960     0.3750     0.8020 hc         1 F6K       0.060700
     41 H20         -3.8650    -0.8530    -1.9500 hc         1 F6K       0.051200
     42 H21         -4.5340     0.6510    -1.3370 hc         1 F6K       0.051200
     43 H22         -5.8970    -3.0740     0.3150 hc         1 F6K       0.051200
     44 H23         -5.0190    -3.1540    -1.1860 hc         1 F6K       0.051200
     45 H24         -3.5880    -3.6230     0.9790 ha         1 F6K       0.174000
     46 C1           3.8110    -0.2720    -0.4540 c3         1 F6K      -0.091400
@<TRIPOS>BOND
     1     1     2 1   
     2     1     3 1   
     3     1    10 1   
     4     1    11 1   
     5     2    22 1   
     6     2    23 1   
     7     2    24 1   
     8     3     4 1   
     9     3    14 1   
    10     3    15 1   
    11     4    17 1   
    12     4    18 1   
    13     4    25 1   
    14     5    18 1   
    15     5    21 2   
    16     5    26 1   
    17     6    19 1   
    18     6    20 1   
    19     6    27 1   
    20     6    28 1   
    21     7     8 1   
    22     7    29 1   
    23     7    30 1   
    24     7    46 1   
    25     9    10 1   
    26     9    33 1   
    27     9    34 1   
    28     9    46 1   
    29    10    12 1   
    30    10    35 1   
    31    11    36 1   
    32    12    13 2   
    33    12    14 1   
    34    14    37 1   
    35    15    16 2   
    36    15    38 1   
    37    17    39 1   
    38    18    19 1   
    39    18    40 1   
    40    19    41 1   
    41    19    42 1   
    42    20    21 1   
    43    20    43 1   
    44    20    44 1   
    45    21    45 1   
    46    31    46 1   
    47    32    46 1   
@<TRIPOS>SUBSTRUCTURE
     1 F6K         1 TEMP              0 ****  ****    0 ROOT
