@<TRIPOS>MOLECULE
F6K
   46    47     1     0     0
SMALL
No Charge or Current Charge


@<TRIPOS>ATOM
      1 C4           0.3920     1.7170    -0.2290 c5         1 F6K       0.201000
      2 C6           0.2430     2.3080    -1.6540 c3         1 F6K      -0.121100
      3 C7          -0.9380     1.0890     0.3820 c5         1 F6K      -0.023600
      4 C8          -1.9270     0.3520    -0.6090 c3         1 F6K       0.177300
      5 C10         -2.9180    -1.7030     0.6020 c2         1 F6K      -0.253200
      6 C13         -5.5230    -1.2770    -0.5630 c6         1 F6K      -0.072400
      7 C21          5.3360     0.0550    -0.4650 c3         1 F6K       0.132600
      8 Cl           6.3890    -1.4020    -0.7370 cl         1 F6K      -0.289000
      9 C2           2.9110     0.8690    -0.1750 c3         1 F6K      -0.054400
     10 C3           1.3910     0.5180    -0.1360 c5         1 F6K      -0.179700
     11 O5           0.8700     2.7990     0.5710 oh         1 F6K      -0.671000
     12 C19          0.9290    -0.2310     1.1250 c          1 F6K       0.577000
     13 O20          1.5770    -0.9100     1.9050 o          1 F6K      -0.543000
     14 N18         -0.3430     0.1910     1.4010 ns         1 F6K      -0.514900
     15 C16         -1.6820     2.2230     1.1660 c          1 F6K       0.598900
     16 O17         -2.7290     2.7720     0.8310 o          1 F6K      -0.511100
     17 O15         -1.2410    -0.6410    -1.3810 oh         1 F6K      -0.656000
     18 C9          -3.2150    -0.3240    -0.0080 c6         1 F6K      -0.054500
     19 C14         -4.3440    -0.4220    -1.0760 c6         1 F6K      -0.072400
     20 C12         -5.0590    -2.7240    -0.2730 c6         1 F6K      -0.049200
     21 C11         -3.7380    -2.7620     0.4830 c2         1 F6K      -0.189200
     22 H1          -0.5350     3.0810    -1.6820 hc         1 F6K       0.057033
     23 H2           1.1770     2.7650    -2.0020 hc         1 F6K       0.057033
     24 H3          -0.0260     1.5400    -2.3880 hc         1 F6K       0.057033
     25 H4          -2.2910     1.1380    -1.2880 h1         1 F6K       0.092700
     26 H5          -1.9960    -1.8060     1.1750 ha         1 F6K       0.170000
     27 H6          -5.9310    -0.8280     0.3540 hc         1 F6K       0.044700
     28 H7          -6.3380    -1.2850    -1.2990 hc         1 F6K       0.044700
     29 H8           5.6530     0.5240     0.4750 h1         1 F6K       0.061200
     30 H9           5.5130     0.7530    -1.2930 h1         1 F6K       0.061200
     31 H10          3.5740    -0.8450    -1.3350 hc         1 F6K       0.067200
     32 H11          3.7180    -1.0730     0.4070 hc         1 F6K       0.067200
     33 H12          3.2030     1.3700     0.7570 hc         1 F6K       0.046200
     34 H13          3.0970     1.5860    -0.9840 hc         1 F6K       0.046200
     35 H14          1.1940    -0.1500    -0.9790 hc         1 F6K       0.096700
     36 H15          1.7230     3.0850     0.1820 ho         1 F6K       0.456000
     37 H16         -0.7860    -0.1360     2.2530 hn         1 F6K       0.330500
     38 H17         -1.1980     2.5100     2.1270 h4         1 F6K       0.010200
     39 H18         -1.6440    -1.4960    -1.1130 ho         1 F6K       0.455000
     40 H19         -3.5840     0.3190     0.8010 hc         1 F6K       0.060700
     41 H20         -3.9550    -0.8650    -2.0040 hc         1 F6K       0.051200
     42 H21         -4.7000     0.5840    -1.3370 hc         1 F6K       0.051200
     43 H22         -5.8340    -3.2470     0.3040 hc         1 F6K       0.051200
     44 H23         -4.9490    -3.2760    -1.2170 hc         1 F6K       0.051200
     45 H24         -3.4790    -3.7170     0.9460 ha         1 F6K       0.174000
     46 C1           3.8490    -0.3420    -0.3990 c3         1 F6K      -0.091400
@<TRIPOS>BOND
     1     1     2 1   
     2     1     3 1   
     3     1    10 1   
     4     1    11 1   
     5     2    22 1   
     6     2    23 1   
     7     2    24 1   
     8     3     4 1   
     9     3    14 1   
    10     3    15 1   
    11     4    17 1   
    12     4    18 1   
    13     4    25 1   
    14     5    18 1   
    15     5    21 2   
    16     5    26 1   
    17     6    19 1   
    18     6    20 1   
    19     6    27 1   
    20     6    28 1   
    21     7     8 1   
    22     7    29 1   
    23     7    30 1   
    24     7    46 1   
    25     9    10 1   
    26     9    33 1   
    27     9    34 1   
    28     9    46 1   
    29    10    12 1   
    30    10    35 1   
    31    11    36 1   
    32    12    13 2   
    33    12    14 1   
    34    14    37 1   
    35    15    16 2   
    36    15    38 1   
    37    17    39 1   
    38    18    19 1   
    39    18    40 1   
    40    19    41 1   
    41    19    42 1   
    42    20    21 1   
    43    20    43 1   
    44    20    44 1   
    45    21    45 1   
    46    31    46 1   
    47    32    46 1   
@<TRIPOS>SUBSTRUCTURE
     1 F6K         1 TEMP              0 ****  ****    0 ROOT
