@<TRIPOS>MOLECULE
F6L
   74    78     1     0     0
SMALL
abcg2


@<TRIPOS>ATOM
      1 C15          5.9670    19.0660    89.3330 ce         1 F6L       0.399600
      2 C16          6.4730    21.0690    90.2480 ca         1 F6L      -0.064200
      3 C17          5.8110    20.3900    91.2520 ca         1 F6L      -0.112300
      4 C19          6.9540    22.3570    90.3970 ca         1 F6L      -0.054000
      5 C21          6.0670    22.2970    92.6520 ca         1 F6L      -0.086000
      6 C22          5.5970    20.9990    92.4720 ca         1 F6L      -0.070000
      7 C26          8.7360    20.6970    88.1250 ca         1 F6L      -0.190300
      8 C18          5.4430    19.0180    90.7600 c5         1 F6L      -0.083000
      9 C20          6.7360    22.9630    91.6290 ca         1 F6L      -0.084000
     10 C01          5.2370    15.7760    87.5690 ca         1 F6L      -0.173800
     11 N01          6.5410    20.2350    89.1140 nh         1 F6L      -0.058500
     12 O01          4.9040    12.6690    84.8420 os         1 F6L      -0.312100
     13 C02          5.5370    15.9320    86.2070 ca         1 F6L      -0.026000
     14 O02          3.8400    10.9180    85.8100 os         1 F6L      -0.459000
     15 C03          5.4170    14.8740    85.3360 ca         1 F6L      -0.169000
     16 O03          4.8690     9.6480    88.1780 oh         1 F6L      -0.709000
     17 C04          4.9970    13.6180    85.7930 ca         1 F6L       0.205100
     18 O04          7.3710     9.1370    86.9560 oh         1 F6L      -0.662000
     19 C05          4.6780    13.4470    87.1410 ca         1 F6L      -0.169000
     20 O05          7.3380    11.2780    85.0410 oh         1 F6L      -0.703000
     21 C06          4.8000    14.5190    88.0030 ca         1 F6L      -0.026000
     22 O06          1.3970     9.4990    85.8080 oh         1 F6L      -0.712000
     23 C07          4.9390     9.0580    86.9040 c6         1 F6L       0.109300
     24 O07         13.5540    19.8050    89.2040 o          1 F6L      -0.697000
     25 C08          6.2320     9.4290    86.1770 c6         1 F6L       0.091300
     26 O08         13.6370    21.7610    88.1330 o          1 F6L      -0.697000
     27 C09          6.2670    10.9230    85.8750 c6         1 F6L       0.114300
     28 C10          4.9890    11.2990    85.1230 c6         1 F6L       0.409300
     29 C11          3.7570     9.5270    86.0680 c6         1 F6L       0.187300
     30 C12          2.4260     9.2490    86.7340 c3         1 F6L       0.173600
     31 C13          5.3500    16.8280    88.5440 cf         1 F6L       0.040800
     32 C14          5.8900    18.0560    88.3410 ce         1 F6L      -0.404600
     33 C27          9.4830    21.7660    87.6440 ca         1 F6L      -0.123500
     34 C28         10.8630    21.7840    87.7930 ca         1 F6L      -0.081000
     35 C29         11.5290    20.7440    88.4340 ca         1 F6L      -0.096600
     36 C30         10.7710    19.6790    88.9150 ca         1 F6L      -0.081000
     37 C31          9.3940    19.6500    88.7630 ca         1 F6L      -0.123500
     38 C32         13.0460    20.7720    88.6060 c          1 F6L       0.708600
     39 H2           7.4760    22.8820    89.6090 ha         1 F6L       0.154000
     40 H3           5.9110    22.7950    93.5990 ha         1 F6L       0.132000
     41 H4           5.0780    20.4840    93.2710 ha         1 F6L       0.129000
     42 H5           3.5880    18.9370    91.8440 hc         1 F6L       0.056700
     43 H6           3.4020    19.5500    90.1990 hc         1 F6L       0.056700
     44 H7           3.6300    17.8210    90.4850 hc         1 F6L       0.056700
     45 H8           5.9150    18.0740    92.6350 hc         1 F6L       0.056700
     46 H9           5.9390    16.9450    91.2880 hc         1 F6L       0.056700
     47 H10          7.2720    18.0840    91.5060 hc         1 F6L       0.056700
     48 H11          6.8730    21.6760    87.6730 h1         1 F6L       0.073700
     49 H12          6.9700    20.0410    87.0820 h1         1 F6L       0.073700
     50 H13          7.0950    23.9700    91.7920 ha         1 F6L       0.138000
     51 H14          5.8650    16.8870    85.8160 ha         1 F6L       0.118000
     52 H15          5.6510    15.0030    84.2870 ha         1 F6L       0.150000
     53 H16          5.6950     9.4580    88.6370 ho         1 F6L       0.521000
     54 H17          7.5550     8.1940    86.9010 ho         1 F6L       0.458000
     55 H18          4.3330    12.5000    87.5280 ha         1 F6L       0.150000
     56 H19          8.1580    11.0640    85.4980 ho         1 F6L       0.527000
     57 H20          4.5500    14.3770    89.0480 ha         1 F6L       0.118000
     58 H21          0.5560     9.3960    86.2620 ho         1 F6L       0.510000
     59 H22          4.8820     7.9610    86.9700 h1         1 F6L       0.044700
     60 H24          6.2520     8.8800    85.2250 h1         1 F6L       0.055700
     61 H25          6.3140    11.4640    86.8290 h1         1 F6L       0.068700
     62 H26          5.0190    10.8250    84.1310 h2         1 F6L       0.091700
     63 H27          3.7950     8.9690    85.1190 h1         1 F6L       0.057700
     64 H28          2.3280     9.8700    87.6310 h1         1 F6L       0.039200
     65 H29          2.4320     8.2020    87.0640 h1         1 F6L       0.039200
     66 H30          4.9680    16.5660    89.5210 ha         1 F6L       0.179000
     67 H31          6.2990    18.2850    87.3670 ha         1 F6L       0.213000
     68 H32          8.9830    22.5930    87.1540 ha         1 F6L       0.083500
     69 H33         11.4280    22.6250    87.4130 ha         1 F6L       0.143000
     70 H34         11.2690    18.8590    89.4170 ha         1 F6L       0.143000
     71 H35          8.8400    18.8010    89.1500 ha         1 F6L       0.083500
     72 C23          3.9220    18.8170    90.8140 c3         1 F6L      -0.075100
     73 C24          6.1930    17.9600    91.5880 c3         1 F6L      -0.075100
     74 C25          7.2420    20.6800    87.9180 c3         1 F6L       0.102900
@<TRIPOS>BOND
     1     1     8 1   
     2     1    11 2   
     3     1    32 1   
     4     2     3 ar  
     5     2     4 ar  
     6     2    11 1   
     7     3     6 ar  
     8     3     8 1   
     9     4     9 ar  
    10     4    39 1   
    11     5     6 ar  
    12     5     9 ar  
    13     5    40 1   
    14     6    41 1   
    15     7    33 ar  
    16     7    37 ar  
    17     7    74 1   
    18     8    72 1   
    19     8    73 1   
    20     9    50 1   
    21    10    13 ar  
    22    10    21 ar  
    23    10    31 1   
    24    11    74 1   
    25    12    17 1   
    26    12    28 1   
    27    13    15 ar  
    28    13    51 1   
    29    14    28 1   
    30    14    29 1   
    31    15    17 ar  
    32    15    52 1   
    33    16    23 1   
    34    16    53 1   
    35    17    19 ar  
    36    18    25 1   
    37    18    54 1   
    38    19    21 ar  
    39    19    55 1   
    40    20    27 1   
    41    20    56 1   
    42    21    57 1   
    43    22    30 1   
    44    22    58 1   
    45    23    25 1   
    46    23    29 1   
    47    23    59 1   
    48    24    38 1   
    49    25    27 1   
    50    25    60 1   
    51    26    38 1   
    52    27    28 1   
    53    27    61 1   
    54    28    62 1   
    55    29    30 1   
    56    29    63 1   
    57    30    64 1   
    58    30    65 1   
    59    31    32 2   
    60    31    66 1   
    61    32    67 1   
    62    33    34 ar  
    63    33    68 1   
    64    34    35 ar  
    65    34    69 1   
    66    35    36 ar  
    67    35    38 1   
    68    36    37 ar  
    69    36    70 1   
    70    37    71 1   
    71    42    72 1   
    72    43    72 1   
    73    44    72 1   
    74    45    73 1   
    75    46    73 1   
    76    47    73 1   
    77    48    74 1   
    78    49    74 1   
@<TRIPOS>SUBSTRUCTURE
     1 F6L         1 TEMP              0 ****  ****    0 ROOT
