@<TRIPOS>MOLECULE
F6L
   74    78     1     0     0
SMALL
No Charge or Current Charge


@<TRIPOS>ATOM
      1 C15          5.9940    19.1420    89.4800 ce         1 F6L       0.399600
      2 C16          6.4020    21.2040    90.4110 ca         1 F6L      -0.064200
      3 C17          5.8670    20.4370    91.4390 ca         1 F6L      -0.112300
      4 C19          6.7990    22.5360    90.6190 ca         1 F6L      -0.054000
      5 C21          6.0900    22.3140    92.9530 ca         1 F6L      -0.086000
      6 C22          5.7010    20.9790    92.7250 ca         1 F6L      -0.070000
      7 C26          8.5380    21.0190    87.9430 ca         1 F6L      -0.190300
      8 C18          5.5330    19.0260    90.9560 c5         1 F6L      -0.083000
      9 C20          6.6380    23.0890    91.9060 ca         1 F6L      -0.084000
     10 C01          5.6050    15.6520    87.6550 ca         1 F6L      -0.173800
     11 N01          6.4620    20.4380    89.2430 nh         1 F6L      -0.058500
     12 O01          5.7370    12.4420    84.9130 os         1 F6L      -0.312100
     13 C02          6.2290    15.7720    86.3950 ca         1 F6L      -0.026000
     14 O02          4.0380    10.9230    85.5790 os         1 F6L      -0.459000
     15 C03          6.2520    14.6820    85.5080 ca         1 F6L      -0.169000
     16 O03          4.2260     9.4090    88.1580 oh         1 F6L      -0.709000
     17 C04          5.6660    13.4550    85.8540 ca         1 F6L       0.205100
     18 O04          6.7570     8.3670    87.5740 oh         1 F6L      -0.662000
     19 C05          5.0340    13.3340    87.1110 ca         1 F6L      -0.169000
     20 O05          7.7730    10.4760    85.9090 oh         1 F6L      -0.703000
     21 C06          5.0080    14.4220    88.0000 ca         1 F6L      -0.026000
     22 O06          1.2930    10.1200    84.9590 oh         1 F6L      -0.712000
     23 C07          4.4430     8.8300    86.8570 c6         1 F6L       0.109300
     24 O07         13.5360    20.2070    88.0660 o          1 F6L      -0.697000
     25 C08          5.9610     8.9330    86.5130 c6         1 F6L       0.091300
     26 O08         13.4260    22.3080    87.6260 o          1 F6L      -0.697000
     27 C09          6.3750    10.4180    86.2730 c6         1 F6L       0.114300
     28 C10          5.4240    11.0560    85.1940 c6         1 F6L       0.409300
     29 C11          3.6140     9.5430    85.7320 c6         1 F6L       0.187300
     30 C12          2.0740     9.5170    86.0120 c3         1 F6L       0.173600
     31 C13          5.5570    16.7720    88.6210 cf         1 F6L       0.040800
     32 C14          6.0490    18.0400    88.4900 ce         1 F6L      -0.404600
     33 C27          9.1880    22.2380    87.6790 ca         1 F6L      -0.123500
     34 C28         10.5910    22.3080    87.6520 ca         1 F6L      -0.081000
     35 C29         11.3780    21.1550    87.8860 ca         1 F6L      -0.096600
     36 C30         10.7160    19.9330    88.1480 ca         1 F6L      -0.081000
     37 C31          9.3120    19.8670    88.1750 ca         1 F6L      -0.123500
     38 C32         12.8960    21.2290    87.8570 c          1 F6L       0.708600
     39 H2           7.2250    23.1330    89.8160 ha         1 F6L       0.154000
     40 H3           5.9700    22.7500    93.9420 ha         1 F6L       0.132000
     41 H4           5.2830    20.3820    93.5320 ha         1 F6L       0.129000
     42 H5           3.7000    18.8290    92.1600 hc         1 F6L       0.056700
     43 H6           3.4260    19.4990    90.5490 hc         1 F6L       0.056700
     44 H7           3.7150    17.7690    90.7520 hc         1 F6L       0.056700
     45 H8           6.0890    18.0270    92.8380 hc         1 F6L       0.056700
     46 H9           6.1590    16.9550    91.4400 hc         1 F6L       0.056700
     47 H10          7.4200    18.1680    91.6850 hc         1 F6L       0.056700
     48 H11          6.6030    21.9560    87.8060 h1         1 F6L       0.073700
     49 H12          6.6580    20.3540    87.1300 h1         1 F6L       0.073700
     50 H13          6.9370    24.1180    92.0930 ha         1 F6L       0.138000
     51 H14          6.7000    16.7000    86.0870 ha         1 F6L       0.118000
     52 H15          6.7350    14.7870    84.5400 ha         1 F6L       0.150000
     53 H16          5.0400     9.1830    88.6710 ho         1 F6L       0.521000
     54 H17          6.7240     7.3870    87.4790 ho         1 F6L       0.458000
     55 H18          4.5470    12.4160    87.4190 ha         1 F6L       0.150000
     56 H19          8.2200     9.8350    86.5140 ho         1 F6L       0.527000
     57 H20          4.5150    14.3040    88.9630 ha         1 F6L       0.118000
     58 H21          0.3570    10.1370    85.2690 ho         1 F6L       0.510000
     59 H22          4.1620     7.7660    86.8710 h1         1 F6L       0.044700
     60 H24          6.1360     8.3760    85.5780 h1         1 F6L       0.055700
     61 H25          6.2300    10.9590    87.2180 h1         1 F6L       0.068700
     62 H26          5.5740    10.4970    84.2580 h2         1 F6L       0.091700
     63 H27          3.7840     9.0160    84.7810 h1         1 F6L       0.057700
     64 H28          1.8880    10.0360    86.9620 h1         1 F6L       0.039200
     65 H29          1.7720     8.4690    86.1500 h1         1 F6L       0.039200
     66 H30          5.0510    16.5100    89.5480 ha         1 F6L       0.179000
     67 H31          6.5500    18.2830    87.5590 ha         1 F6L       0.213000
     68 H32          8.6080    23.1400    87.4950 ha         1 F6L       0.083500
     69 H33         11.0680    23.2640    87.4470 ha         1 F6L       0.143000
     70 H34         11.2900    19.0280    88.3320 ha         1 F6L       0.143000
     71 H35          8.8320    18.9140    88.3800 ha         1 F6L       0.083500
     72 C23          4.0100    18.7600    91.1100 c3         1 F6L      -0.075100
     73 C24          6.3430    17.9820    91.7720 c3         1 F6L      -0.075100
     74 C25          7.0120    20.9530    87.9770 c3         1 F6L       0.102900
@<TRIPOS>BOND
     1     1     8 1   
     2     1    11 2   
     3     1    32 1   
     4     2     3 ar  
     5     2     4 ar  
     6     2    11 1   
     7     3     6 ar  
     8     3     8 1   
     9     4     9 ar  
    10     4    39 1   
    11     5     6 ar  
    12     5     9 ar  
    13     5    40 1   
    14     6    41 1   
    15     7    33 ar  
    16     7    37 ar  
    17     7    74 1   
    18     8    72 1   
    19     8    73 1   
    20     9    50 1   
    21    10    13 ar  
    22    10    21 ar  
    23    10    31 1   
    24    11    74 1   
    25    12    17 1   
    26    12    28 1   
    27    13    15 ar  
    28    13    51 1   
    29    14    28 1   
    30    14    29 1   
    31    15    17 ar  
    32    15    52 1   
    33    16    23 1   
    34    16    53 1   
    35    17    19 ar  
    36    18    25 1   
    37    18    54 1   
    38    19    21 ar  
    39    19    55 1   
    40    20    27 1   
    41    20    56 1   
    42    21    57 1   
    43    22    30 1   
    44    22    58 1   
    45    23    25 1   
    46    23    29 1   
    47    23    59 1   
    48    24    38 1   
    49    25    27 1   
    50    25    60 1   
    51    26    38 1   
    52    27    28 1   
    53    27    61 1   
    54    28    62 1   
    55    29    30 1   
    56    29    63 1   
    57    30    64 1   
    58    30    65 1   
    59    31    32 2   
    60    31    66 1   
    61    32    67 1   
    62    33    34 ar  
    63    33    68 1   
    64    34    35 ar  
    65    34    69 1   
    66    35    36 ar  
    67    35    38 1   
    68    36    37 ar  
    69    36    70 1   
    70    37    71 1   
    71    42    72 1   
    72    43    72 1   
    73    44    72 1   
    74    45    73 1   
    75    46    73 1   
    76    47    73 1   
    77    48    74 1   
    78    49    74 1   
@<TRIPOS>SUBSTRUCTURE
     1 F6L         1 TEMP              0 ****  ****    0 ROOT
