@<TRIPOS>MOLECULE
F6M
   77    78     1     0     0
SMALL
No Charge or Current Charge


@<TRIPOS>ATOM
      1 N3         -10.8590    -6.2950     0.0260 n1         1 F6M      -0.464000
      2 C11        -10.2790    -5.2810    -0.0080 cg         1 F6M       0.333000
      3 C8          -9.5770    -4.0290    -0.0510 ca         1 F6M      -0.062000
      4 C9         -10.1930    -2.8540     0.4200 ca         1 F6M      -0.039000
      5 C10         -9.5020    -1.6300     0.3750 ca         1 F6M      -0.167000
      6 C7          -8.2710    -3.9660    -0.5710 ca         1 F6M      -0.039000
      7 C6          -7.5860    -2.7380    -0.6120 ca         1 F6M      -0.167000
      8 C5          -8.1920    -1.5640    -0.1280 ca         1 F6M       0.349000
      9 N2          -7.5540    -0.3210    -0.1630 nu         1 F6M      -0.925900
     10 C4          -6.2350     0.0980    -0.1420 ca         1 F6M       0.428900
     11 N1          -6.0760     1.4140    -0.3300 nb         1 F6M      -0.333000
     12 C3          -4.8140     1.8730    -0.3060 ca         1 F6M       0.441900
     13 N8          -4.6400     3.2390    -0.5040 nu         1 F6M      -0.919100
     14 C2          -5.6780     4.2520    -0.7430 c3         1 F6M       0.229800
     15 C1          -5.0380     5.6440    -0.9090 c3         1 F6M      -0.097400
     16 C31         -6.0750     6.7570    -1.1630 c3         1 F6M      -0.087100
     17 N4          -5.2680    -0.8080     0.0780 nb         1 F6M      -0.268000
     18 C12         -4.0050    -0.3450     0.1020 ca         1 F6M       0.194900
     19 C13         -3.7150     1.0170    -0.0900 ca         1 F6M      -0.195000
     20 C14         -2.3550     1.4820    -0.0580 cg         1 F6M      -0.101000
     21 C15         -1.2090     1.8820    -0.0280 c1         1 F6M      -0.144100
     22 C16          0.1910     2.3230     0.0280 c3         1 F6M       0.017700
     23 C17          1.1470     1.1940     0.4730 c3         1 F6M      -0.094400
     24 C18          2.6170     1.6480     0.5360 c3         1 F6M       0.104000
     25 N5           3.4980     0.5610     0.9620 ns         1 F6M      -0.509900
     26 C19          4.8480     0.7070     1.2120 c          1 F6M       0.583100
     27 O1           5.4050     1.7910     1.0870 o          1 F6M      -0.597100
     28 C20          5.5790    -0.5890     1.6690 c3         1 F6M       0.026700
     29 C28          5.0290    -1.0830     3.0350 c3         1 F6M      -0.097100
     30 N6           7.0780    -0.4760     1.6170 n          1 F6M      -0.388800
     31 C27          7.8020    -0.0070     2.8270 c3         1 F6M       0.099300
     32 C21          7.7380    -0.5900     0.3670 c          1 F6M       0.614300
     33 O2           7.0990    -0.7460    -0.6650 o          1 F6M      -0.614100
     34 C22          9.2280    -0.4610     0.3170 ce         1 F6M      -0.301200
     35 C23          9.9140    -0.1080    -0.7980 c2         1 F6M      -0.129200
     36 C24         11.4130     0.0760    -0.8990 c3         1 F6M       0.183000
     37 N7          12.0540    -0.9820    -1.7140 n3         1 F6M      -0.708600
     38 C25         13.4680    -0.6720    -2.0240 c3         1 F6M       0.148100
     39 C26         11.8940    -2.3410    -1.1410 c3         1 F6M       0.148100
     40 H1         -11.2050    -2.8870     0.8200 ha         1 F6M       0.124500
     41 H2          -9.9880    -0.7310     0.7430 ha         1 F6M       0.137500
     42 H3          -7.7870    -4.8650    -0.9500 ha         1 F6M       0.124500
     43 H4          -6.5900    -2.7080    -1.0410 ha         1 F6M       0.137500
     44 H5          -8.1980     0.4670    -0.1190 hn         1 F6M       0.511000
     45 H6          -3.6690     3.5500    -0.4790 hn         1 F6M       0.508000
     46 H7          -6.2460     4.0040    -1.6510 h1         1 F6M       0.054700
     47 H8          -6.3830     4.2760     0.1000 h1         1 F6M       0.054700
     48 H9          -4.4650     5.8920    -0.0070 hc         1 F6M       0.045200
     49 H10         -4.3300     5.6220    -1.7470 hc         1 F6M       0.045200
     50 H11         -5.5760     7.7270    -1.2750 hc         1 F6M       0.038700
     51 H12         -6.6440     6.5560    -2.0790 hc         1 F6M       0.038700
     52 H13         -6.7800     6.8280    -0.3260 hc         1 F6M       0.038700
     53 H14         -3.2180    -1.0780     0.2780 h4         1 F6M       0.027100
     54 H15          0.4870     2.6890    -0.9630 hc         1 F6M       0.059700
     55 H16          0.2700     3.1690     0.7220 hc         1 F6M       0.059700
     56 H17          0.8420     0.8290     1.4620 hc         1 F6M       0.052200
     57 H18          1.0610     0.3500    -0.2240 hc         1 F6M       0.052200
     58 H19          2.9400     1.9960    -0.4550 h1         1 F6M       0.051700
     59 H20          2.7140     2.4820     1.2440 h1         1 F6M       0.051700
     60 H21          3.1030    -0.3640     1.0860 hn         1 F6M       0.314500
     61 H22          5.2890    -1.3550     0.9380 h1         1 F6M       0.098700
     62 H23          5.5880    -1.9610     3.3810 hc         1 F6M       0.045367
     63 H24          5.0910    -0.3030     3.8030 hc         1 F6M       0.045367
     64 H25          3.9760    -1.3740     2.9450 hc         1 F6M       0.045367
     65 H26          8.2970    -0.8560     3.3150 h1         1 F6M       0.040367
     66 H27          8.5530     0.7450     2.5530 h1         1 F6M       0.040367
     67 H28          7.1180     0.4690     3.5380 h1         1 F6M       0.040367
     68 H29          9.7670    -0.6050     1.2500 ha         1 F6M       0.179000
     69 H31          9.3940     0.0690    -1.7420 ha         1 F6M       0.207000
     70 H33         11.6050     1.0600    -1.3490 h1         1 F6M       0.041200
     71 H34         11.8500     0.0960     0.1090 h1         1 F6M       0.041200
     72 H36         14.0730    -0.6410    -1.1080 h1         1 F6M       0.032367
     73 H37         13.8940    -1.4310    -2.6940 h1         1 F6M       0.032367
     74 H38         13.5510     0.3020    -2.5250 h1         1 F6M       0.032367
     75 H39         10.8340    -2.6010    -1.0290 h1         1 F6M       0.032367
     76 H40         12.3530    -3.0930    -1.7960 h1         1 F6M       0.032367
     77 H41         12.3720    -2.4090    -0.1540 h1         1 F6M       0.032367
@<TRIPOS>BOND
     1     1     2 3   
     2     2     3 1   
     3     3     4 ar  
     4     3     6 ar  
     5     4     5 ar  
     6     4    40 1   
     7     5     8 ar  
     8     5    41 1   
     9     6     7 ar  
    10     6    42 1   
    11     7     8 ar  
    12     7    43 1   
    13     8     9 1   
    14     9    10 1   
    15     9    44 1   
    16    10    11 ar  
    17    10    17 ar  
    18    11    12 ar  
    19    12    13 1   
    20    12    19 ar  
    21    13    14 1   
    22    13    45 1   
    23    14    15 1   
    24    14    46 1   
    25    14    47 1   
    26    15    16 1   
    27    15    48 1   
    28    15    49 1   
    29    16    50 1   
    30    16    51 1   
    31    16    52 1   
    32    17    18 ar  
    33    18    19 ar  
    34    18    53 1   
    35    19    20 1   
    36    20    21 3   
    37    21    22 1   
    38    22    23 1   
    39    22    54 1   
    40    22    55 1   
    41    23    24 1   
    42    23    56 1   
    43    23    57 1   
    44    24    25 1   
    45    24    58 1   
    46    24    59 1   
    47    25    26 1   
    48    25    60 1   
    49    26    27 2   
    50    26    28 1   
    51    28    29 1   
    52    28    30 1   
    53    28    61 1   
    54    29    62 1   
    55    29    63 1   
    56    29    64 1   
    57    30    31 1   
    58    30    32 1   
    59    31    65 1   
    60    31    66 1   
    61    31    67 1   
    62    32    33 2   
    63    32    34 1   
    64    34    35 2   
    65    34    68 1   
    66    35    36 1   
    67    35    69 1   
    68    36    37 1   
    69    36    70 1   
    70    36    71 1   
    71    37    38 1   
    72    37    39 1   
    73    38    72 1   
    74    38    73 1   
    75    38    74 1   
    76    39    75 1   
    77    39    76 1   
    78    39    77 1   
@<TRIPOS>SUBSTRUCTURE
     1 F6M         1 TEMP              0 ****  ****    0 ROOT
