@<TRIPOS>MOLECULE
F6M
   77    78     1     0     0
SMALL
bcc


@<TRIPOS>ATOM
      1 N3         -11.1110    -6.0260    -0.0610 n1         1 F6M      -0.374800
      2 C11        -10.4980    -5.0490    -0.0770 cg         1 F6M       0.243800
      3 C8          -9.7380    -3.8460    -0.0970 ca         1 F6M      -0.062000
      4 C9         -10.3780    -2.6040    -0.0790 ca         1 F6M      -0.057000
      5 C10         -9.6350    -1.4470    -0.1000 ca         1 F6M      -0.185000
      6 C7          -8.3450    -3.8930    -0.1340 ca         1 F6M      -0.057000
      7 C6          -7.5940    -2.7340    -0.1540 ca         1 F6M      -0.185000
      8 C5          -8.2310    -1.4860    -0.1390 ca         1 F6M       0.210600
      9 N2          -7.5870    -0.2680    -0.1610 nu         1 F6M      -0.732300
     10 C4          -6.2590     0.0620    -0.1940 ca         1 F6M       0.954900
     11 N1          -6.0410     1.3750    -0.2140 nb         1 F6M      -0.859000
     12 C3          -4.7820     1.7910    -0.2440 ca         1 F6M       0.770200
     13 N8          -4.5420     3.1020    -0.2690 nu         1 F6M      -0.863900
     14 C2          -5.5750     4.1170    -0.2640 c3         1 F6M       0.229800
     15 C1          -4.9520     5.5020    -0.3290 c3         1 F6M      -0.097400
     16 C31         -6.0090     6.5950    -0.3270 c3         1 F6M      -0.087100
     17 N4          -5.3420    -0.8930    -0.2030 nb         1 F6M      -0.794000
     18 C12         -4.0780    -0.4750    -0.2320 ca         1 F6M       0.523200
     19 C13         -3.7060     0.8510    -0.2520 ca         1 F6M      -0.325600
     20 C14         -2.3540     1.2770    -0.2760 cg         1 F6M      -0.101000
     21 C15         -1.2190     1.6870    -0.2930 c1         1 F6M      -0.144100
     22 C16          0.1610     2.1500    -0.2950 c3         1 F6M       0.017700
     23 C17          1.1350     1.0660     0.1690 c3         1 F6M      -0.094400
     24 C18          2.5640     1.5850     0.1690 c3         1 F6M       0.104000
     25 N5           3.4750     0.5430     0.5940 ns         1 F6M      -0.576900
     26 C19          4.7860     0.7580     0.7760 c          1 F6M       0.650100
     27 O1           5.3070     1.8500     0.6090 o          1 F6M      -0.597100
     28 C20          5.5860    -0.4730     1.2170 c3         1 F6M       0.026700
     29 C28          5.0820    -1.0410     2.5440 c3         1 F6M      -0.097100
     30 N6           7.0010    -0.1680     1.2360 n          1 F6M      -0.455800
     31 C27          7.5290     0.6260     2.3340 c3         1 F6M       0.099300
     32 C21          7.7400    -0.4840     0.1450 c          1 F6M       0.681300
     33 O2           7.2480    -1.0250    -0.8420 o          1 F6M      -0.614100
     34 C22          9.1910    -0.1760     0.2030 ce         1 F6M      -0.251200
     35 C23          9.9870    -0.4270    -0.8350 c2         1 F6M      -0.079200
     36 C24         11.4470    -0.1160    -0.8640 c3         1 F6M       0.183000
     37 N7          12.2300    -1.2610    -1.2850 n3         1 F6M      -0.708600
     38 C25         13.5880    -0.8800    -1.6100 c3         1 F6M       0.148100
     39 C26         12.2090    -2.3160    -0.2920 c3         1 F6M       0.148100
     40 H1         -11.4580    -2.5470    -0.0490 ha         1 F6M       0.142500
     41 H2         -10.1450    -0.4920    -0.0850 ha         1 F6M       0.155500
     42 H3          -7.8370    -4.8480    -0.1480 ha         1 F6M       0.142500
     43 H4          -6.5190    -2.7970    -0.1820 ha         1 F6M       0.155500
     44 H5          -8.1910     0.5410    -0.1490 hn         1 F6M       0.455800
     45 H6          -3.5800     3.4010    -0.2880 hn         1 F6M       0.452800
     46 H7          -6.2460     3.9700    -1.1150 h1         1 F6M       0.054700
     47 H8          -6.1870     4.0240     0.6390 h1         1 F6M       0.054700
     48 H9          -4.2770     5.6350     0.5210 hc         1 F6M       0.045200
     49 H10         -4.3380     5.5790    -1.2310 hc         1 F6M       0.045200
     50 H11         -5.5500     7.5820    -0.3720 hc         1 F6M       0.038700
     51 H12         -6.6770     6.5000    -1.1840 hc         1 F6M       0.038700
     52 H13         -6.6190     6.5530     0.5770 hc         1 F6M       0.038700
     53 H14         -3.3150    -1.2460    -0.2380 h4         1 F6M       0.027100
     54 H15          0.4330     2.4870    -1.2990 hc         1 F6M       0.059700
     55 H16          0.2410     3.0250     0.3560 hc         1 F6M       0.059700
     56 H17          0.8620     0.7330     1.1730 hc         1 F6M       0.052200
     57 H18          1.0550     0.2000    -0.4930 hc         1 F6M       0.052200
     58 H19          2.8320     1.9380    -0.8320 h1         1 F6M       0.051700
     59 H20          2.6470     2.4410     0.8420 h1         1 F6M       0.051700
     60 H21          3.1140    -0.3940     0.6810 hn         1 F6M       0.314500
     61 H22          5.4390    -1.2430     0.4590 h1         1 F6M       0.098700
     62 H23          5.7270    -1.8570     2.8690 hc         1 F6M       0.045367
     63 H24          5.0310    -0.2990     3.3390 hc         1 F6M       0.045367
     64 H25          4.0810    -1.4530     2.4230 hc         1 F6M       0.045367
     65 H26          8.2320     0.0600     2.9470 h1         1 F6M       0.040367
     66 H27          8.0200     1.5310     1.9810 h1         1 F6M       0.040367
     67 H28          6.7160     0.9430     2.9780 h1         1 F6M       0.040367
     68 H29          9.6200     0.2450     1.1030 ha         1 F6M       0.129000
     69 H31          9.5760    -0.8660    -1.7390 ha         1 F6M       0.157000
     70 H33         11.6000     0.6830    -1.5970 h1         1 F6M       0.041200
     71 H34         11.7740     0.2850     0.1110 h1         1 F6M       0.041200
     72 H36         14.1440    -0.4700    -0.7520 h1         1 F6M       0.032367
     73 H37         14.1390    -1.7480    -1.9750 h1         1 F6M       0.032367
     74 H38         13.5910    -0.1290    -2.4010 h1         1 F6M       0.032367
     75 H39         11.1860    -2.6390    -0.0970 h1         1 F6M       0.032367
     76 H40         12.7650    -3.1800    -0.6570 h1         1 F6M       0.032367
     77 H41         12.6520    -2.0100     0.6680 h1         1 F6M       0.032367
@<TRIPOS>BOND
     1     1     2 3   
     2     2     3 1   
     3     3     4 ar  
     4     3     6 ar  
     5     4     5 ar  
     6     4    40 1   
     7     5     8 ar  
     8     5    41 1   
     9     6     7 ar  
    10     6    42 1   
    11     7     8 ar  
    12     7    43 1   
    13     8     9 1   
    14     9    10 1   
    15     9    44 1   
    16    10    11 ar  
    17    10    17 ar  
    18    11    12 ar  
    19    12    13 1   
    20    12    19 ar  
    21    13    14 1   
    22    13    45 1   
    23    14    15 1   
    24    14    46 1   
    25    14    47 1   
    26    15    16 1   
    27    15    48 1   
    28    15    49 1   
    29    16    50 1   
    30    16    51 1   
    31    16    52 1   
    32    17    18 ar  
    33    18    19 ar  
    34    18    53 1   
    35    19    20 1   
    36    20    21 3   
    37    21    22 1   
    38    22    23 1   
    39    22    54 1   
    40    22    55 1   
    41    23    24 1   
    42    23    56 1   
    43    23    57 1   
    44    24    25 1   
    45    24    58 1   
    46    24    59 1   
    47    25    26 1   
    48    25    60 1   
    49    26    27 2   
    50    26    28 1   
    51    28    29 1   
    52    28    30 1   
    53    28    61 1   
    54    29    62 1   
    55    29    63 1   
    56    29    64 1   
    57    30    31 1   
    58    30    32 1   
    59    31    65 1   
    60    31    66 1   
    61    31    67 1   
    62    32    33 2   
    63    32    34 1   
    64    34    35 2   
    65    34    68 1   
    66    35    36 1   
    67    35    69 1   
    68    36    37 1   
    69    36    70 1   
    70    36    71 1   
    71    37    38 1   
    72    37    39 1   
    73    38    72 1   
    74    38    73 1   
    75    38    74 1   
    76    39    75 1   
    77    39    76 1   
    78    39    77 1   
@<TRIPOS>SUBSTRUCTURE
     1 F6M         1 TEMP              0 ****  ****    0 ROOT
