@<TRIPOS>MOLECULE
F6N
   15    15     1     0     0
SMALL
bcc


@<TRIPOS>ATOM
      1 N           -3.4990     0.3210    -0.6810 n8         1 F6N      -0.879800
      2 CA1         -2.6750     0.5340     0.4960 c3         1 F6N       0.137500
      3 C2          -1.2770     0.0740     0.2680 cc         1 F6N       0.411700
      4 N2          -0.1840     0.7200     0.4750 nd         1 F6N      -0.647000
      5 CA2          0.8320    -0.1590     0.1370 cd         1 F6N       0.199500
      6 C            2.2990     0.1600     0.2190 c          1 F6N       0.844100
      7 O            3.0620    -0.7650    -0.1220 o          1 F6N      -0.816800
      8 C5           0.2640    -1.3150    -0.2700 cc         1 F6N       0.128300
      9 O3          -1.0800    -1.1740    -0.1890 os         1 F6N      -0.366800
     10 H1          -4.4670     0.4860    -0.4370 hn         1 F6N       0.332800
     11 H2          -3.2670     1.0080    -1.3880 hn         1 F6N       0.332800
     12 H4          -2.6150     1.5710     0.8420 h1         1 F6N       0.042700
     13 H5          -3.1020    -0.0440     1.3210 h1         1 F6N       0.042700
     14 H7           0.6450    -2.2570    -0.6260 h4         1 F6N       0.056100
     15 OXT          2.6070     1.2980     0.6120 o          1 F6N      -0.816800
@<TRIPOS>BOND
     1     1     2 1   
     2     1    10 1   
     3     1    11 1   
     4     2     3 1   
     5     2    12 1   
     6     2    13 1   
     7     3     4 2   
     8     3     9 1   
     9     4     5 1   
    10     5     6 1   
    11     5     8 2   
    12     6     7 1   
    13     6    15 1   
    14     8     9 1   
    15     8    14 1   
@<TRIPOS>SUBSTRUCTURE
     1 F6N         1 TEMP              0 ****  ****    0 ROOT
