@<TRIPOS>MOLECULE
F6N
   15    15     1     0     0
SMALL
No Charge or Current Charge


@<TRIPOS>ATOM
      1 N           -3.4520     0.7830    -0.8040 n8         1 F6N      -0.879800
      2 CA1         -2.8140     0.2440     0.4350 c3         1 F6N       0.137500
      3 C2          -1.3360    -0.1140     0.2940 cc         1 F6N       0.411700
      4 N2          -0.3240     0.7340     0.1730 nd         1 F6N      -0.647000
      5 CA2          0.8040    -0.0940     0.0750 cd         1 F6N       0.199500
      6 C            2.2790     0.2440    -0.0840 c          1 F6N       0.844100
      7 O            3.1040    -0.6650    -0.1500 o          1 F6N      -0.816800
      8 C5           0.3800    -1.3970     0.1460 cc         1 F6N       0.128300
      9 O3          -0.9740    -1.4300     0.2860 os         1 F6N      -0.366800
     10 H1          -4.4100     1.0790    -0.5890 hn         1 F6N       0.332800
     11 H2          -2.9690     1.6470    -1.0740 hn         1 F6N       0.332800
     12 H4          -2.9150     0.9950     1.2310 h1         1 F6N       0.042700
     13 H5          -3.3690    -0.6500     0.7500 h1         1 F6N       0.042700
     14 H7           0.9100    -2.3390     0.1110 h4         1 F6N       0.056100
     15 OXT          2.6290     1.4210    -0.1440 o          1 F6N      -0.816800
@<TRIPOS>BOND
     1     1     2 1   
     2     1    10 1   
     3     1    11 1   
     4     2     3 1   
     5     2    12 1   
     6     2    13 1   
     7     3     4 2   
     8     3     9 1   
     9     4     5 1   
    10     5     6 1   
    11     5     8 2   
    12     6     7 1   
    13     6    15 1   
    14     8     9 1   
    15     8    14 1   
@<TRIPOS>SUBSTRUCTURE
     1 F6N         1 TEMP              0 ****  ****    0 ROOT
