@<TRIPOS>MOLECULE
F6O
   81    85     1     0     0
SMALL
No Charge or Current Charge


@<TRIPOS>ATOM
      1 C1         -20.6290    18.9340   -13.4010 c3         1 F6O      -0.078600
      2 C10        -17.2790    18.6630   -19.3880 ca         1 F6O      -0.047000
      3 C11        -17.4100    19.8520   -18.6530 ca         1 F6O      -0.130000
      4 C12        -18.4150    19.9940   -17.6760 ca         1 F6O       0.399000
      5 C14        -17.6180    22.0830   -16.4430 ca         1 F6O       0.426900
      6 C16        -17.2360    23.9900   -15.2890 ca         1 F6O       0.205900
      7 C18        -15.5000    22.6970   -15.9600 ca         1 F6O       0.429900
      8 C2         -19.6880    18.7980   -14.6250 c3         1 F6O      -0.248700
      9 C21        -13.2680    21.5210   -16.5470 ca         1 F6O       0.210000
     10 C22        -13.6870    20.1890   -16.7570 ca         1 F6O      -0.032000
     11 C23        -12.7950    19.2310   -17.2660 ca         1 F6O      -0.205000
     12 C24        -11.4690    19.5730   -17.5700 ca         1 F6O       0.340000
     13 C25        -11.0320    20.8890   -17.3480 ca         1 F6O      -0.246000
     14 C26        -11.9190    21.8620   -16.8350 ca         1 F6O       0.153100
     15 C28        -10.1640    23.6150   -16.8620 c3         1 F6O       0.150900
     16 C3         -18.8960    17.4640   -14.5990 c3         1 F6O      -0.078600
     17 C30        -10.3440    17.3440   -17.3080 c6         1 F6O       0.195800
     18 C31        -10.0700    16.1580   -18.2570 c6         1 F6O      -0.129400
     19 C32         -8.8910    16.4790   -19.2090 c6         1 F6O       0.198500
     20 C33         -9.2110    17.7790   -19.9990 c6         1 F6O      -0.129400
     21 C34         -9.5070    18.9480   -19.0320 c6         1 F6O       0.195800
     22 C36         -7.2350    15.4840   -20.8040 c6         1 F6O       0.178300
     23 C37         -6.7580    14.1800   -21.5410 c6         1 F6O       0.166800
     24 C39         -9.1300    13.7060   -21.9960 c6         1 F6O       0.166800
     25 C40         -9.6050    14.8080   -20.9810 c6         1 F6O       0.178300
     26 C41         -7.4050    12.0000   -22.5400 c3         1 F6O       0.157100
     27 C7         -19.3110    18.9290   -17.4540 ca         1 F6O      -0.297500
     28 C8         -19.1770    17.7310   -18.1920 ca         1 F6O      -0.006000
     29 C9         -18.1630    17.6020   -19.1530 ca         1 F6O      -0.149000
     30 N15        -18.1450    23.1500   -15.8260 nb         1 F6O      -0.297000
     31 N17        -15.8990    23.8150   -15.3310 nb         1 F6O      -0.302000
     32 N19        -16.3120    21.8000   -16.5370 nb         1 F6O      -0.334000
     33 N20        -14.1290    22.5180   -16.0340 nu         1 F6O      -0.904900
     34 N29        -10.5970    18.5900   -18.0820 nh         1 F6O      -0.779400
     35 N35         -8.5210    15.3060   -20.0630 n3         1 F6O      -0.726600
     36 N38         -7.8040    13.1120   -21.6520 n3         1 F6O      -0.710600
     37 O27        -11.5060    23.1670   -16.5980 os         1 F6O      -0.349100
     38 S4         -20.5960    19.0340   -16.1970 sy         1 F6O       1.021500
     39 H1         -20.0610    18.8540   -12.4660 hc         1 F6O       0.053533
     40 H2         -21.1360    19.9070   -13.4010 hc         1 F6O       0.053533
     41 H3         -21.3950    18.1480   -13.4030 hc         1 F6O       0.053533
     42 H4         -16.4970    18.5690   -20.1380 ha         1 F6O       0.116000
     43 H5         -16.7330    20.6740   -18.8590 ha         1 F6O       0.145000
     44 H6         -17.6110    24.8780   -14.7830 h5         1 F6O       0.052100
     45 H7         -18.9640    19.6210   -14.5890 h1         1 F6O       0.095700
     46 H8         -14.6970    19.8780   -16.5150 ha         1 F6O       0.132000
     47 H9         -13.1410    18.2150   -17.4330 ha         1 F6O       0.119000
     48 H10        -10.0000    21.1400   -17.5630 ha         1 F6O       0.119000
     49 H11        -10.0610    24.6770   -16.6060 h1         1 F6O       0.042700
     50 H12         -9.4390    23.0490   -16.2640 h1         1 F6O       0.042700
     51 H13         -9.9150    23.4970   -17.9250 h1         1 F6O       0.042700
     52 H14        -18.3430    17.3630   -13.6570 hc         1 F6O       0.053533
     53 H15        -19.5690    16.6020   -14.6900 hc         1 F6O       0.053533
     54 H16        -18.1660    17.4180   -15.4160 hc         1 F6O       0.053533
     55 H17        -11.2050    17.0940   -16.6700 h1         1 F6O       0.056450
     56 H18         -9.4800    17.4850   -16.6410 h1         1 F6O       0.056450
     57 H19        -10.9830    15.9450   -18.8280 hc         1 F6O       0.054200
     58 H20         -9.8440    15.2600   -17.6680 hc         1 F6O       0.054200
     59 H21         -8.0260    16.7050   -18.5650 h1         1 F6O       0.054700
     60 H22         -8.3720    18.0620   -20.6460 hc         1 F6O       0.054200
     61 H23        -10.0810    17.6330   -20.6510 hc         1 F6O       0.054200
     62 H24         -8.5920    19.2060   -18.4770 h1         1 F6O       0.056450
     63 H25         -9.7900    19.8290   -19.6270 h1         1 F6O       0.056450
     64 H26         -6.4370    15.8150   -20.1230 h1         1 F6O       0.031700
     65 H27         -7.3490    16.2710   -21.5630 h1         1 F6O       0.031700
     66 H28         -5.8870    13.7770   -21.0030 h1         1 F6O       0.033950
     67 H29         -6.3990    14.4690   -22.5400 h1         1 F6O       0.033950
     68 H30         -9.0780    14.1610   -22.9960 h1         1 F6O       0.033950
     69 H31         -9.9010    12.9230   -22.0490 h1         1 F6O       0.033950
     70 H32        -10.0370    15.6310   -21.5670 h1         1 F6O       0.031700
     71 H33        -10.4240    14.3830   -20.3840 h1         1 F6O       0.031700
     72 H34         -6.4560    11.5610   -22.2070 h1         1 F6O       0.030033
     73 H35         -8.1660    11.2080   -22.5340 h1         1 F6O       0.030033
     74 H36         -7.2800    12.3500   -23.5730 h1         1 F6O       0.030033
     75 H37        -19.8500    16.8920   -18.0220 ha         1 F6O       0.144000
     76 H38        -18.0650    16.6770   -19.7180 ha         1 F6O       0.124000
     77 H39        -19.4810    21.3810   -16.6490 hn         1 F6O       0.549000
     78 H40        -13.6230    23.3600   -15.7570 hn         1 F6O       0.526000
     79 N13        -18.5280    21.1890   -16.9670 nu         1 F6O      -0.961900
     80 O5         -21.5080    17.8930   -16.3520 o          1 F6O      -0.525500
     81 O6         -21.1110    20.4110   -16.1770 o          1 F6O      -0.525500
@<TRIPOS>BOND
     1     1     8 1   
     2     1    39 1   
     3     1    40 1   
     4     1    41 1   
     5     2     3 ar  
     6     2    29 ar  
     7     2    42 1   
     8     3     4 ar  
     9     3    43 1   
    10     4    27 ar  
    11     4    79 1   
    12     5    30 ar  
    13     5    32 ar  
    14     5    79 1   
    15     6    30 ar  
    16     6    31 ar  
    17     6    44 1   
    18     7    31 ar  
    19     7    32 ar  
    20     7    33 1   
    21     8    16 1   
    22     8    38 1   
    23     8    45 1   
    24     9    10 ar  
    25     9    14 ar  
    26     9    33 1   
    27    10    11 ar  
    28    10    46 1   
    29    11    12 ar  
    30    11    47 1   
    31    12    13 ar  
    32    12    34 1   
    33    13    14 ar  
    34    13    48 1   
    35    14    37 1   
    36    15    37 1   
    37    15    49 1   
    38    15    50 1   
    39    15    51 1   
    40    16    52 1   
    41    16    53 1   
    42    16    54 1   
    43    17    18 1   
    44    17    34 1   
    45    17    55 1   
    46    17    56 1   
    47    18    19 1   
    48    18    57 1   
    49    18    58 1   
    50    19    20 1   
    51    19    35 1   
    52    19    59 1   
    53    20    21 1   
    54    20    60 1   
    55    20    61 1   
    56    21    34 1   
    57    21    62 1   
    58    21    63 1   
    59    22    23 1   
    60    22    35 1   
    61    22    64 1   
    62    22    65 1   
    63    23    36 1   
    64    23    66 1   
    65    23    67 1   
    66    24    25 1   
    67    24    36 1   
    68    24    68 1   
    69    24    69 1   
    70    25    35 1   
    71    25    70 1   
    72    25    71 1   
    73    26    36 1   
    74    26    72 1   
    75    26    73 1   
    76    26    74 1   
    77    27    28 ar  
    78    27    38 1   
    79    28    29 ar  
    80    28    75 1   
    81    29    76 1   
    82    33    78 1   
    83    38    80 2   
    84    38    81 2   
    85    77    79 1   
@<TRIPOS>SUBSTRUCTURE
     1 F6O         1 TEMP              0 ****  ****    0 ROOT
