@<TRIPOS>MOLECULE
F6O
   81    85     1     0     0
SMALL
bcc


@<TRIPOS>ATOM
      1 C1         -20.2530    18.3870   -14.9520 c3         1 F6O      -0.078600
      2 C10        -14.6930    17.5150   -18.6700 ca         1 F6O      -0.065000
      3 C11        -15.3500    18.7260   -18.5430 ca         1 F6O      -0.148000
      4 C12        -16.6690    18.7740   -18.0960 ca         1 F6O       0.260600
      5 C14        -16.8770    21.1680   -17.5400 ca         1 F6O       0.952900
      6 C16        -17.2560    23.3070   -17.0510 ca         1 F6O       0.731900
      7 C18        -15.2260    22.4360   -16.7190 ca         1 F6O       0.955900
      8 C2         -18.8440    18.1750   -15.4870 c3         1 F6O      -0.137900
      9 C21        -12.9360    21.6280   -16.3710 ca         1 F6O       0.071600
     10 C22        -13.1030    20.3250   -15.9380 ca         1 F6O      -0.050000
     11 C23        -12.0840    19.3900   -16.0210 ca         1 F6O      -0.223000
     12 C24        -10.8220    19.7410   -16.5170 ca         1 F6O       0.201600
     13 C25        -10.6450    21.0720   -16.9350 ca         1 F6O      -0.264000
     14 C26        -11.6800    21.9950   -16.8770 ca         1 F6O       0.153100
     15 C28        -10.3200    23.7360   -17.7620 c3         1 F6O       0.127700
     16 C3         -18.0100    17.2520   -14.6150 c3         1 F6O      -0.078600
     17 C30         -9.9880    17.4530   -16.2180 c6         1 F6O       0.195800
     18 C31        -10.5230    16.6670   -17.4130 c6         1 F6O      -0.129400
     19 C32         -9.5460    16.7700   -18.5840 c6         1 F6O       0.198500
     20 C33         -9.2310    18.2440   -18.8780 c6         1 F6O      -0.129400
     21 C34         -8.7640    18.9480   -17.6040 c6         1 F6O       0.195800
     22 C36         -9.0390    15.9240   -20.8110 c6         1 F6O       0.178300
     23 C37         -9.3600    14.7290   -21.7100 c6         1 F6O       0.166800
     24 C39        -11.5280    15.7220   -21.6170 c6         1 F6O       0.166800
     25 C40        -11.3320    16.2720   -20.2030 c6         1 F6O       0.178300
     26 C41        -11.1650    13.7250   -22.9260 c3         1 F6O       0.157100
     27 C7         -17.3010    17.5580   -17.7890 ca         1 F6O      -0.297500
     28 C8         -16.6420    16.3430   -17.9370 ca         1 F6O      -0.024000
     29 C9         -15.3300    16.3180   -18.3760 ca         1 F6O      -0.167000
     30 N15        -17.7590    22.1740   -17.5130 nb         1 F6O      -0.823000
     31 N17        -16.0220    23.5170   -16.6400 nb         1 F6O      -0.828000
     32 N19        -15.6170    21.2460   -17.1600 nb         1 F6O      -0.860000
     33 N20        -13.9570    22.5960   -16.3150 nu         1 F6O      -0.711300
     34 N29         -9.7580    18.8490   -16.5450 nh         1 F6O      -0.641000
     35 N35         -9.9890    15.9830   -19.7220 n3         1 F6O      -0.726600
     36 N38        -10.7940    14.4860   -21.7600 n3         1 F6O      -0.710600
     37 O27        -11.5640    23.2760   -17.2740 os         1 F6O      -0.325900
     38 S4         -18.9670    17.5130   -17.1660 sy         1 F6O       1.052300
     39 H1         -20.1810    18.7850   -13.9400 hc         1 F6O       0.053533
     40 H2         -20.8180    19.0990   -15.5510 hc         1 F6O       0.053533
     41 H3         -20.8080    17.4500   -14.9010 hc         1 F6O       0.053533
     42 H4         -13.6700    17.5160   -19.0200 ha         1 F6O       0.134000
     43 H5         -14.8340    19.6380   -18.7930 ha         1 F6O       0.163000
     44 H6         -17.9340    24.1540   -17.0080 h5         1 F6O       0.052100
     45 H7         -18.3420    19.1400   -15.6000 h1         1 F6O       0.095700
     46 H8         -14.0600    20.0110   -15.5480 ha         1 F6O       0.150000
     47 H9         -12.3070    18.3840   -15.6990 ha         1 F6O       0.137000
     48 H10         -9.6830    21.3950   -17.3000 ha         1 F6O       0.137000
     49 H11        -10.4540    24.7870   -18.0070 h1         1 F6O       0.042700
     50 H12         -9.5290    23.6450   -17.0130 h1         1 F6O       0.042700
     51 H13        -10.0150    23.2010   -18.6650 h1         1 F6O       0.042700
     52 H14        -17.8580    17.7340   -13.6500 hc         1 F6O       0.053533
     53 H15        -18.5150    16.3030   -14.4410 hc         1 F6O       0.053533
     54 H16        -17.0250    17.0510   -15.0350 hc         1 F6O       0.053533
     55 H17        -10.6470    17.3640   -15.3550 h1         1 F6O       0.056450
     56 H18         -9.0290    17.0280   -15.9060 h1         1 F6O       0.056450
     57 H19        -11.5040    17.0650   -17.6880 hc         1 F6O       0.054200
     58 H20        -10.6670    15.6190   -17.1380 hc         1 F6O       0.054200
     59 H21         -8.6040    16.3090   -18.2510 h1         1 F6O       0.054700
     60 H22         -8.4440    18.3230   -19.6330 hc         1 F6O       0.054200
     61 H23        -10.1090    18.7620   -19.2790 hc         1 F6O       0.054200
     62 H24         -7.8490    18.4710   -17.2410 h1         1 F6O       0.056450
     63 H25         -8.4990    19.9820   -17.8060 h1         1 F6O       0.056450
     64 H26         -8.0320    15.8060   -20.4030 h1         1 F6O       0.031700
     65 H27         -9.0190    16.8480   -21.4100 h1         1 F6O       0.031700
     66 H28         -8.8620    13.8280   -21.3410 h1         1 F6O       0.033950
     67 H29         -8.9470    14.9320   -22.7120 h1         1 F6O       0.033950
     68 H30        -11.2380    16.4740   -22.3700 h1         1 F6O       0.033950
     69 H31        -12.5910    15.5310   -21.7760 h1         1 F6O       0.033950
     70 H32        -11.5610    17.3480   -20.2200 h1         1 F6O       0.031700
     71 H33        -12.0580    15.8000   -19.5340 h1         1 F6O       0.031700
     72 H34        -10.6240    12.7770   -22.9370 h1         1 F6O       0.030033
     73 H35        -12.2320    13.4970   -22.9050 h1         1 F6O       0.030033
     74 H36        -10.9460    14.2410   -23.8740 h1         1 F6O       0.030033
     75 H37        -17.1490    15.4190   -17.6980 ha         1 F6O       0.162000
     76 H38        -14.8160    15.3740   -18.4880 ha         1 F6O       0.142000
     77 H39        -18.3520    19.9700   -18.1890 hn         1 F6O       0.493800
     78 H40        -13.7040    23.5360   -16.0520 hn         1 F6O       0.470800
     79 N13        -17.3640    19.9780   -17.9770 nu         1 F6O      -0.768300
     80 O5         -19.3940    16.1180   -17.0870 o          1 F6O      -0.596300
     81 O6         -19.7870    18.4250   -17.9730 o          1 F6O      -0.596300
@<TRIPOS>BOND
     1     1     8 1   
     2     1    39 1   
     3     1    40 1   
     4     1    41 1   
     5     2     3 ar  
     6     2    29 ar  
     7     2    42 1   
     8     3     4 ar  
     9     3    43 1   
    10     4    27 ar  
    11     4    79 1   
    12     5    30 ar  
    13     5    32 ar  
    14     5    79 1   
    15     6    30 ar  
    16     6    31 ar  
    17     6    44 1   
    18     7    31 ar  
    19     7    32 ar  
    20     7    33 1   
    21     8    16 1   
    22     8    38 1   
    23     8    45 1   
    24     9    10 ar  
    25     9    14 ar  
    26     9    33 1   
    27    10    11 ar  
    28    10    46 1   
    29    11    12 ar  
    30    11    47 1   
    31    12    13 ar  
    32    12    34 1   
    33    13    14 ar  
    34    13    48 1   
    35    14    37 1   
    36    15    37 1   
    37    15    49 1   
    38    15    50 1   
    39    15    51 1   
    40    16    52 1   
    41    16    53 1   
    42    16    54 1   
    43    17    18 1   
    44    17    34 1   
    45    17    55 1   
    46    17    56 1   
    47    18    19 1   
    48    18    57 1   
    49    18    58 1   
    50    19    20 1   
    51    19    35 1   
    52    19    59 1   
    53    20    21 1   
    54    20    60 1   
    55    20    61 1   
    56    21    34 1   
    57    21    62 1   
    58    21    63 1   
    59    22    23 1   
    60    22    35 1   
    61    22    64 1   
    62    22    65 1   
    63    23    36 1   
    64    23    66 1   
    65    23    67 1   
    66    24    25 1   
    67    24    36 1   
    68    24    68 1   
    69    24    69 1   
    70    25    35 1   
    71    25    70 1   
    72    25    71 1   
    73    26    36 1   
    74    26    72 1   
    75    26    73 1   
    76    26    74 1   
    77    27    28 ar  
    78    27    38 1   
    79    28    29 ar  
    80    28    75 1   
    81    29    76 1   
    82    33    78 1   
    83    38    80 2   
    84    38    81 2   
    85    77    79 1   
@<TRIPOS>SUBSTRUCTURE
     1 F6O         1 TEMP              0 ****  ****    0 ROOT
