@<TRIPOS>MOLECULE
F6T
   42    44     1     0     0
SMALL
bcc


@<TRIPOS>ATOM
      1 FAT         -4.3860     1.2050     2.2100 f          1 F6T      -0.139400
      2 CAS         -4.7770     1.1970     0.9250 ca         1 F6T       0.162900
      3 CAU         -5.8240     2.0270     0.5720 ca         1 F6T      -0.187000
      4 CAV         -6.2440     2.0370    -0.7480 ca         1 F6T      -0.076000
      5 CAW         -5.6190     1.2310    -1.6870 ca         1 F6T      -0.187000
      6 CAX         -4.5770     0.4230    -1.2740 ca         1 F6T       0.162900
      7 FAY         -3.9820    -0.3460    -2.2010 f          1 F6T      -0.139400
      8 CAR         -4.1110     0.3620     0.0350 ca         1 F6T      -0.157300
      9 CAB         -2.9800    -0.5370     0.4830 c3         1 F6T       0.002600
     10 CAA         -3.3050    -2.0200     0.2930 c3         1 F6T      -0.089100
     11 CAC         -1.6510    -0.1460    -0.1790 c3         1 F6T      -0.155400
     12 CAD         -0.4860    -0.8360     0.5020 c          1 F6T       0.667100
     13 OAQ         -0.3170    -0.7580     1.7130 o          1 F6T      -0.611100
     14 NAE          0.3260    -1.5290    -0.3110 ns         1 F6T      -0.570900
     15 CAF          1.4990    -2.2530     0.1330 c3         1 F6T       0.149300
     16 CAG          2.7840    -1.4920    -0.0770 ca         1 F6T      -0.114300
     17 CAP          3.0170    -0.3100     0.6320 ca         1 F6T      -0.107000
     18 CAO          4.2020     0.3570     0.4040 ca         1 F6T       0.001600
     19 NAM          4.7210     1.5200     0.9290 ns         1 F6T      -0.458100
     20 CAL          5.9570     1.7920     0.3950 c          1 F6T       0.803500
     21 OAN          6.6780     2.7410     0.6450 o          1 F6T      -0.637500
     22 NAK          6.2030     0.7660    -0.4840 ns         1 F6T      -0.459100
     23 CAJ          5.1540    -0.1270    -0.5030 ca         1 F6T       0.009600
     24 CAI          4.9370    -1.2940    -1.2050 ca         1 F6T      -0.133000
     25 CAH          3.7360    -1.9650    -0.9780 ca         1 F6T      -0.120000
     26 H1          -6.2980     2.6520     1.3170 ha         1 F6T       0.156000
     27 H2          -7.0620     2.6770    -1.0480 ha         1 F6T       0.142000
     28 H3          -5.9300     1.2260    -2.7230 ha         1 F6T       0.156000
     29 H4          -2.8470    -0.3760     1.5520 hc         1 F6T       0.087700
     30 H5          -3.3480    -2.3070    -0.7570 hc         1 F6T       0.041700
     31 H6          -2.5460    -2.6390     0.7720 hc         1 F6T       0.041700
     32 H7          -4.2620    -2.2680     0.7520 hc         1 F6T       0.041700
     33 H8          -1.6660    -0.3620    -1.2470 hc         1 F6T       0.065200
     34 H9          -1.4960     0.9320    -0.0730 hc         1 F6T       0.065200
     35 H10          0.1350    -1.5230    -1.3000 hn         1 F6T       0.314500
     36 H11          1.3670    -2.4980     1.1860 h1         1 F6T       0.064200
     37 H12          1.5390    -3.1960    -0.4130 h1         1 F6T       0.064200
     38 H13          2.2930     0.0700     1.3410 ha         1 F6T       0.158000
     39 H14          4.2770     2.1090     1.6150 hn         1 F6T       0.357500
     40 H15          7.0480     0.6970    -1.0270 hn         1 F6T       0.354500
     41 H16          5.6650    -1.6780    -1.9060 ha         1 F6T       0.141000
     42 H17          3.5400    -2.8830    -1.5170 ha         1 F6T       0.131000
@<TRIPOS>BOND
     1     1     2 1   
     2     2     3 ar  
     3     2     8 ar  
     4     3     4 ar  
     5     3    26 1   
     6     4     5 ar  
     7     4    27 1   
     8     5     6 ar  
     9     5    28 1   
    10     6     7 1   
    11     6     8 ar  
    12     8     9 1   
    13     9    10 1   
    14     9    11 1   
    15     9    29 1   
    16    10    30 1   
    17    10    31 1   
    18    10    32 1   
    19    11    12 1   
    20    11    33 1   
    21    11    34 1   
    22    12    13 2   
    23    12    14 1   
    24    14    15 1   
    25    14    35 1   
    26    15    16 1   
    27    15    36 1   
    28    15    37 1   
    29    16    17 ar  
    30    16    25 ar  
    31    17    18 ar  
    32    17    38 1   
    33    18    19 1   
    34    18    23 ar  
    35    19    20 1   
    36    19    39 1   
    37    20    21 2   
    38    20    22 1   
    39    22    23 1   
    40    22    40 1   
    41    23    24 ar  
    42    24    25 ar  
    43    24    41 1   
    44    25    42 1   
@<TRIPOS>SUBSTRUCTURE
     1 F6T         1 TEMP              0 ****  ****    0 ROOT
