@<TRIPOS>MOLECULE
F6T
   42    44     1     0     0
SMALL
No Charge or Current Charge


@<TRIPOS>ATOM
      1 FAT         -4.7660     1.0990     2.1940 f          1 F6T      -0.174500
      2 CAS         -5.0040     1.0910     0.8630 ca         1 F6T       0.198000
      3 CAU         -6.0800     1.8520     0.3790 ca         1 F6T      -0.169000
      4 CAV         -6.3680     1.8790    -0.9930 ca         1 F6T      -0.058000
      5 CAW         -5.5700     1.1400    -1.8780 ca         1 F6T      -0.169000
      6 CAX         -4.4930     0.3780    -1.3980 ca         1 F6T       0.198000
      7 FAY         -3.7560    -0.3130    -2.2950 f          1 F6T      -0.174500
      8 CAR         -4.1870     0.3360    -0.0140 ca         1 F6T      -0.157300
      9 CAB         -3.0080    -0.4950     0.5340 c3         1 F6T       0.002600
     10 CAA         -3.1910    -2.0080     0.2610 c3         1 F6T      -0.089100
     11 CAC         -1.6420     0.0500     0.0330 c3         1 F6T      -0.155400
     12 CAD         -0.4560    -0.6120     0.7420 c          1 F6T       0.600100
     13 OAQ         -0.1700    -0.3710     1.9060 o          1 F6T      -0.611100
     14 NAE          0.2820    -1.4740    -0.0360 ns         1 F6T      -0.503900
     15 CAF          1.4750    -2.1910     0.4150 c3         1 F6T       0.149300
     16 CAG          2.7440    -1.4410     0.0380 ca         1 F6T      -0.114300
     17 CAP          3.2610    -0.4500     0.9090 ca         1 F6T      -0.089000
     18 CAO          4.4260     0.2080     0.5090 ca         1 F6T       0.001600
     19 NAM          5.1960     1.2190     1.1080 ns         1 F6T      -0.504600
     20 CAL          6.2840     1.5910     0.3670 c          1 F6T       0.594000
     21 OAN          7.1300     2.4280     0.6160 o          1 F6T      -0.562000
     22 NAK          6.1750     0.7750    -0.7260 ns         1 F6T      -0.505600
     23 CAJ          5.0620    -0.0790    -0.6810 ca         1 F6T       0.009600
     24 CAI          4.5830    -1.0470    -1.5660 ca         1 F6T      -0.115000
     25 CAH          3.4040    -1.7320    -1.1900 ca         1 F6T      -0.102000
     26 H1          -6.6910     2.4220     1.0740 ha         1 F6T       0.138000
     27 H2          -7.2020     2.4700    -1.3680 ha         1 F6T       0.124000
     28 H3          -5.7850     1.1550    -2.9440 ha         1 F6T       0.138000
     29 H4          -2.9840    -0.4020     1.6270 hc         1 F6T       0.087700
     30 H5          -3.0830    -2.2450    -0.8030 hc         1 F6T       0.041700
     31 H6          -2.4500    -2.5970     0.8140 hc         1 F6T       0.041700
     32 H7          -4.1860    -2.3360     0.5860 hc         1 F6T       0.041700
     33 H8          -1.5600    -0.1090    -1.0480 hc         1 F6T       0.065200
     34 H9          -1.6070     1.1240     0.2450 hc         1 F6T       0.065200
     35 H10         -0.0210    -1.6000    -0.9940 hn         1 F6T       0.314500
     36 H11          1.4340    -2.3360     1.5030 h1         1 F6T       0.064200
     37 H12          1.4810    -3.1860    -0.0480 h1         1 F6T       0.064200
     38 H13          2.7710    -0.2070     1.8500 ha         1 F6T       0.140000
     39 H14          4.9830     1.6460     2.0030 hn         1 F6T       0.471000
     40 H15          6.8450     0.8010    -1.4870 hn         1 F6T       0.468000
     41 H16          5.0920    -1.2630    -2.5020 ha         1 F6T       0.123000
     42 H17          2.9980    -2.4920    -1.8550 ha         1 F6T       0.113000
@<TRIPOS>BOND
     1     1     2 1   
     2     2     3 ar  
     3     2     8 ar  
     4     3     4 ar  
     5     3    26 1   
     6     4     5 ar  
     7     4    27 1   
     8     5     6 ar  
     9     5    28 1   
    10     6     7 1   
    11     6     8 ar  
    12     8     9 1   
    13     9    10 1   
    14     9    11 1   
    15     9    29 1   
    16    10    30 1   
    17    10    31 1   
    18    10    32 1   
    19    11    12 1   
    20    11    33 1   
    21    11    34 1   
    22    12    13 2   
    23    12    14 1   
    24    14    15 1   
    25    14    35 1   
    26    15    16 1   
    27    15    36 1   
    28    15    37 1   
    29    16    17 ar  
    30    16    25 ar  
    31    17    18 ar  
    32    17    38 1   
    33    18    19 1   
    34    18    23 ar  
    35    19    20 1   
    36    19    39 1   
    37    20    21 2   
    38    20    22 1   
    39    22    23 1   
    40    22    40 1   
    41    23    24 ar  
    42    24    25 ar  
    43    24    41 1   
    44    25    42 1   
@<TRIPOS>SUBSTRUCTURE
     1 F6T         1 TEMP              0 ****  ****    0 ROOT
