@<TRIPOS>MOLECULE
F6W
   34    35     1     0     0
SMALL
abcg2


@<TRIPOS>ATOM
      1 C1           3.0320     1.3930     0.0130 ca         1 F6W       0.003500
      2 C2           1.7740     1.9600    -0.0090 ca         1 F6W      -0.138000
      3 C3           2.0420    -0.7980    -0.1610 ca         1 F6W       0.003500
      4 C4           0.7780    -0.2260    -0.1840 ca         1 F6W      -0.138000
      5 C5           0.6320     1.1570    -0.0990 ca         1 F6W      -0.039000
      6 C6          -2.1390     0.6540    -0.1340 c3         1 F6W       0.045600
      7 C11         -6.4760    -1.8530     0.0140 ca         1 F6W      -0.107000
      8 O1           5.7290     0.2520    -0.4810 o          1 F6W      -0.550500
      9 O            4.6790    -2.0400    -0.5750 o          1 F6W      -0.550500
     10 N            5.0710    -0.8900     1.6170 n8         1 F6W      -1.103100
     11 C            3.1630     0.0100    -0.0590 ca         1 F6W      -0.294500
     12 S1          -0.9100     1.9870    -0.1020 ss         1 F6W      -0.155000
     13 C7          -3.5250     1.2760     0.0300 c3         1 F6W      -0.021100
     14 C8          -4.5790     0.2030     0.0280 ca         1 F6W      -0.087300
     15 C13         -5.1890    -0.1920    -1.1600 ca         1 F6W      -0.104500
     16 C12         -6.1320    -1.2110    -1.1690 ca         1 F6W      -0.108500
     17 C10         -5.8720    -1.4670     1.2040 ca         1 F6W      -0.108500
     18 C9          -4.9310    -0.4460     1.2090 ca         1 F6W      -0.104500
     19 H1           3.9000     2.0340     0.0810 ha         1 F6W       0.134500
     20 H2           1.6790     3.0370     0.0470 ha         1 F6W       0.123500
     21 H3           2.1330    -1.8730    -0.2290 ha         1 F6W       0.134500
     22 H4          -0.0790    -0.8780    -0.2700 ha         1 F6W       0.123500
     23 H5          -2.0770     0.1150    -1.0800 h1         1 F6W       0.070200
     24 H6          -1.9430    -0.0450     0.6800 h1         1 F6W       0.070200
     25 H8           5.7880    -0.3150     2.0330 hn         1 F6W       0.506500
     26 H9           4.8580    -1.7690     2.0620 hn         1 F6W       0.506500
     27 H10         -3.5640     1.8400     0.9650 hc         1 F6W       0.061200
     28 H11         -3.7090     1.9840    -0.7810 hc         1 F6W       0.061200
     29 H12         -4.9300     0.3070    -2.0870 ha         1 F6W       0.112500
     30 H13         -6.6020    -1.5010    -2.1000 ha         1 F6W       0.114000
     31 H14         -6.1350    -1.9600     2.1310 ha         1 F6W       0.114000
     32 H15         -4.4680    -0.1480     2.1420 ha         1 F6W       0.112500
     33 S            4.7730    -0.7200     0.0280 sy         1 F6W       1.197600
     34 H7          -7.2110    -2.6470     0.0090 ha         1 F6W       0.114000
@<TRIPOS>BOND
     1     1     2 ar  
     2     1    11 ar  
     3     1    19 1   
     4     2     5 ar  
     5     2    20 1   
     6     3     4 ar  
     7     3    11 ar  
     8     3    21 1   
     9     4     5 ar  
    10     4    22 1   
    11     5    12 1   
    12     6    12 1   
    13     6    13 1   
    14     6    23 1   
    15     6    24 1   
    16     7    16 ar  
    17     7    17 ar  
    18     7    34 1   
    19     8    33 2   
    20     9    33 2   
    21    10    25 1   
    22    10    26 1   
    23    10    33 1   
    24    11    33 1   
    25    13    14 1   
    26    13    27 1   
    27    13    28 1   
    28    14    15 ar  
    29    14    18 ar  
    30    15    16 ar  
    31    15    29 1   
    32    16    30 1   
    33    17    18 ar  
    34    17    31 1   
    35    18    32 1   
@<TRIPOS>SUBSTRUCTURE
     1 F6W         1 TEMP              0 ****  ****    0 ROOT
