@<TRIPOS>MOLECULE
F6W
   34    35     1     0     0
SMALL
No Charge or Current Charge


@<TRIPOS>ATOM
      1 C1           3.0990     1.4360     0.0340 ca         1 F6W       0.003500
      2 C2           1.8190     2.0160     0.0480 ca         1 F6W      -0.138000
      3 C3           2.0840    -0.7780    -0.0130 ca         1 F6W       0.003500
      4 C4           0.8060    -0.1910     0.0010 ca         1 F6W      -0.138000
      5 C5           0.6660     1.2120     0.0310 ca         1 F6W      -0.039000
      6 C6          -2.1940     0.6800     0.0130 c3         1 F6W       0.045600
      7 C11         -6.6350    -1.8560    -0.0600 ca         1 F6W      -0.107000
      8 O1           5.8810     0.2410    -0.4600 o          1 F6W      -0.550500
      9 O            4.8150    -2.0860    -0.5120 o          1 F6W      -0.550500
     10 N            5.2030    -0.9020     1.5570 n8         1 F6W      -1.103100
     11 C            3.2360     0.0340     0.0010 ca         1 F6W      -0.294500
     12 S1          -0.9340     2.0310     0.0500 ss         1 F6W      -0.155000
     13 C7          -3.6170     1.2660     0.0240 c3         1 F6W      -0.021100
     14 C8          -4.6790     0.1750    -0.0060 ca         1 F6W      -0.087300
     15 C13         -5.1610    -0.3150    -1.2360 ca         1 F6W      -0.104500
     16 C12         -6.1370    -1.3270    -1.2630 ca         1 F6W      -0.108500
     17 C10         -6.1560    -1.3740     1.1690 ca         1 F6W      -0.108500
     18 C9          -5.1800    -0.3620     1.1970 ca         1 F6W      -0.104500
     19 H1           3.9780     2.0800     0.0500 ha         1 F6W       0.134500
     20 H2           1.7230     3.0990     0.0720 ha         1 F6W       0.123500
     21 H3           2.1730    -1.8630    -0.0340 ha         1 F6W       0.134500
     22 H4          -0.0600    -0.8450    -0.0120 ha         1 F6W       0.123500
     23 H5          -2.0500     0.0790    -0.8940 h1         1 F6W       0.070200
     24 H6          -2.0550     0.0360     0.8910 h1         1 F6W       0.070200
     25 H8           6.1150    -0.4510     1.5760 hn         1 F6W       0.506500
     26 H9           5.4590    -1.8870     1.5440 hn         1 F6W       0.506500
     27 H10         -3.7410     1.8910     0.9160 hc         1 F6W       0.061200
     28 H11         -3.7360     1.9330    -0.8390 hc         1 F6W       0.061200
     29 H12         -4.7800     0.0880    -2.1720 ha         1 F6W       0.112500
     30 H13         -6.5060    -1.7000    -2.2150 ha         1 F6W       0.114000
     31 H14         -6.5390    -1.7840     2.1010 ha         1 F6W       0.114000
     32 H15         -4.8130     0.0040     2.1530 ha         1 F6W       0.112500
     33 S            4.8670    -0.7130    -0.0200 sy         1 F6W       1.197600
     34 H7          -7.3890    -2.6400    -0.0810 ha         1 F6W       0.114000
@<TRIPOS>BOND
     1     1     2 ar  
     2     1    11 ar  
     3     1    19 1   
     4     2     5 ar  
     5     2    20 1   
     6     3     4 ar  
     7     3    11 ar  
     8     3    21 1   
     9     4     5 ar  
    10     4    22 1   
    11     5    12 1   
    12     6    12 1   
    13     6    13 1   
    14     6    23 1   
    15     6    24 1   
    16     7    16 ar  
    17     7    17 ar  
    18     7    34 1   
    19     8    33 2   
    20     9    33 2   
    21    10    25 1   
    22    10    26 1   
    23    10    33 1   
    24    11    33 1   
    25    13    14 1   
    26    13    27 1   
    27    13    28 1   
    28    14    15 ar  
    29    14    18 ar  
    30    15    16 ar  
    31    15    29 1   
    32    16    30 1   
    33    17    18 ar  
    34    17    31 1   
    35    18    32 1   
@<TRIPOS>SUBSTRUCTURE
     1 F6W         1 TEMP              0 ****  ****    0 ROOT
