@<TRIPOS>MOLECULE
F6Y
   39    43     1     0     0
SMALL
No Charge or Current Charge


@<TRIPOS>ATOM
      1 O1           0.9770     0.0970     4.0760 o          1 F6Y      -0.523000
      2 C1           0.7220     0.0620     2.8810 c          1 F6Y       0.675700
      3 C2           1.7060     0.0630     1.7770 ca         1 F6Y      -0.228600
      4 C3           3.1060     0.1020     1.8170 ca         1 F6Y      -0.068000
      5 C4           3.8040     0.0920     0.5920 ca         1 F6Y      -0.097000
      6 O2          -0.5460     0.0150     2.3430 os         1 F6Y      -0.443100
      7 C5          -0.4690    -0.0170     0.8810 c5         1 F6Y       0.358900
      8 C6          -1.0980    -1.3180     0.4020 ca         1 F6Y      -0.172800
      9 C7          -0.5870    -2.5620     0.8310 ca         1 F6Y      -0.000500
     10 C8          -1.1640    -3.7610     0.3810 ca         1 F6Y      -0.205500
     11 C9          -2.2530    -3.7310    -0.4980 ca         1 F6Y       0.171100
     12 O3          -2.8040    -4.8990    -0.9280 oh         1 F6Y      -0.534600
     13 C11         -2.7670    -2.5030    -0.9310 ca         1 F6Y      -0.215500
     14 C12         -2.1930    -1.3040    -0.4830 ca         1 F6Y       0.189600
     15 O4          -2.7270    -0.1210    -0.9330 os         1 F6Y      -0.231200
     16 C13         -2.2580     1.1080    -0.5400 ca         1 F6Y       0.189600
     17 C14         -2.8940     2.2520    -1.0430 ca         1 F6Y      -0.215500
     18 C15         -2.4490     3.5250    -0.6710 ca         1 F6Y       0.171100
     19 O5          -3.0740     4.6280    -1.1640 oh         1 F6Y      -0.534600
     20 C16         -1.3640     3.6580     0.2060 ca         1 F6Y      -0.205500
     21 C17         -0.7240     2.5130     0.7110 ca         1 F6Y      -0.000500
     22 C18         -1.1670     1.2240     0.3420 ca         1 F6Y      -0.172800
     23 C19          1.0170     0.0160     0.5960 ca         1 F6Y      -0.130300
     24 C20          1.6870     0.0060    -0.6370 ca         1 F6Y      -0.058000
     25 C21          3.1060     0.0440    -0.6490 ca         1 F6Y      -0.109600
     26 C22          3.8650     0.0330    -1.9670 c          1 F6Y       0.711600
     27 O6           3.2260    -0.0080    -3.0090 o          1 F6Y      -0.707500
     28 O7           5.0870     0.0670    -1.9390 o          1 F6Y      -0.707500
     29 H3           3.6400     0.1390     2.7650 ha         1 F6Y       0.113000
     30 H4           4.8910     0.1220     0.6080 ha         1 F6Y       0.138000
     31 H7           0.2610    -2.6020     1.5120 ha         1 F6Y       0.133500
     32 H8          -0.7640    -4.7150     0.7160 ha         1 F6Y       0.122500
     33 HA          -3.5470    -4.6860    -1.5320 ho         1 F6Y       0.463500
     34 H11         -3.6110    -2.4670    -1.6140 ha         1 F6Y       0.131000
     35 H14         -3.7350     2.1480    -1.7230 ha         1 F6Y       0.131000
     36 H5          -2.6300     5.4230    -0.7990 ho         1 F6Y       0.463500
     37 H16         -1.0090     4.6420     0.5000 ha         1 F6Y       0.122500
     38 H17          0.1190     2.6290     1.3880 ha         1 F6Y       0.133500
     39 H20          1.1180    -0.0320    -1.5630 ha         1 F6Y       0.146000
@<TRIPOS>BOND
     1     1     2 2   
     2     2     3 1   
     3     2     6 1   
     4     3     4 ar  
     5     3    23 ar  
     6     4     5 ar  
     7     4    29 1   
     8     5    25 ar  
     9     5    30 1   
    10     6     7 1   
    11     7     8 1   
    12     7    22 1   
    13     7    23 1   
    14     8     9 ar  
    15     8    14 ar  
    16     9    10 ar  
    17     9    31 1   
    18    10    11 ar  
    19    10    32 1   
    20    11    12 1   
    21    11    13 ar  
    22    12    33 1   
    23    13    14 ar  
    24    13    34 1   
    25    14    15 1   
    26    15    16 1   
    27    16    17 ar  
    28    16    22 ar  
    29    17    18 ar  
    30    17    35 1   
    31    18    19 1   
    32    18    20 ar  
    33    19    36 1   
    34    20    21 ar  
    35    20    37 1   
    36    21    22 ar  
    37    21    38 1   
    38    23    24 ar  
    39    24    25 ar  
    40    24    39 1   
    41    25    26 1   
    42    26    27 1   
    43    26    28 1   
@<TRIPOS>SUBSTRUCTURE
     1 F6Y         1 TEMP              0 ****  ****    0 ROOT
