@<TRIPOS>MOLECULE
F6Y
   39    43     1     0     0
SMALL
bcc


@<TRIPOS>ATOM
      1 O1           0.8170     0.0820     4.0540 o          1 F6Y      -0.598500
      2 C1           0.6850     0.0540     2.8600 c          1 F6Y       0.751200
      3 C2           1.7030     0.0590     1.8030 ca         1 F6Y      -0.228600
      4 C3           3.0870     0.0980     1.8900 ca         1 F6Y      -0.086000
      5 C4           3.7990     0.0920     0.7030 ca         1 F6Y      -0.115000
      6 O2          -0.5230     0.0110     2.2760 os         1 F6Y      -0.419900
      7 C5          -0.4310    -0.0170     0.8180 c5         1 F6Y       0.335700
      8 C6          -1.0710    -1.2800     0.3260 ca         1 F6Y      -0.172800
      9 C7          -0.5010    -2.5280     0.5880 ca         1 F6Y      -0.018500
     10 C8          -1.0930    -3.7010     0.1790 ca         1 F6Y      -0.223500
     11 C9          -2.3020    -3.6510    -0.5250 ca         1 F6Y       0.171100
     12 O3          -2.8430    -4.8150    -0.9140 oh         1 F6Y      -0.495600
     13 C11         -2.8890    -2.4260    -0.8010 ca         1 F6Y      -0.233500
     14 C12         -2.2690    -1.2580    -0.3700 ca         1 F6Y       0.189600
     15 O4          -2.9120    -0.1090    -0.6820 os         1 F6Y      -0.231200
     16 C13         -2.3340     1.0850    -0.4100 ca         1 F6Y       0.189600
     17 C14         -3.0180     2.2010    -0.8740 ca         1 F6Y      -0.233500
     18 C15         -2.4940     3.4640    -0.6440 ca         1 F6Y       0.171100
     19 O5          -3.1850     4.5170    -1.1050 oh         1 F6Y      -0.495600
     20 C16         -1.2810     3.6010     0.0390 ca         1 F6Y      -0.223500
     21 C17         -0.6240     2.4750     0.4840 ca         1 F6Y      -0.018500
     22 C18         -1.1320     1.1930     0.2760 ca         1 F6Y      -0.172800
     23 C19          1.0570     0.0150     0.5870 ca         1 F6Y      -0.130300
     24 C20          1.7630     0.0060    -0.5990 ca         1 F6Y      -0.076000
     25 C21          3.1540     0.0460    -0.5400 ca         1 F6Y      -0.109600
     26 C22          3.9730     0.0380    -1.8320 c          1 F6Y       0.922200
     27 O6           3.3250    -0.0300    -2.8920 o          1 F6Y      -0.812800
     28 O7           5.2080     0.0990    -1.7030 o          1 F6Y      -0.812800
     29 H3           3.5910     0.1330     2.8460 ha         1 F6Y       0.131000
     30 H4           4.8790     0.1230     0.7270 ha         1 F6Y       0.156000
     31 H7           0.4360    -2.5800     1.1290 ha         1 F6Y       0.151500
     32 H8          -0.6320    -4.6560     0.3940 ha         1 F6Y       0.140500
     33 HA          -3.6620    -4.6660    -1.4010 ho         1 F6Y       0.424500
     34 H11         -3.8210    -2.3630    -1.3510 ha         1 F6Y       0.149000
     35 H14         -3.9510     2.0800    -1.4100 ha         1 F6Y       0.149000
     36 H5          -2.7280     5.3400    -0.8970 ho         1 F6Y       0.424500
     37 H16         -0.8590     4.5820     0.2180 ha         1 F6Y       0.140500
     38 H17          0.3150     2.5980     1.0110 ha         1 F6Y       0.151500
     39 H20          1.2580    -0.0320    -1.5550 ha         1 F6Y       0.164000
@<TRIPOS>BOND
     1     1     2 2   
     2     2     3 1   
     3     2     6 1   
     4     3     4 ar  
     5     3    23 ar  
     6     4     5 ar  
     7     4    29 1   
     8     5    25 ar  
     9     5    30 1   
    10     6     7 1   
    11     7     8 1   
    12     7    22 1   
    13     7    23 1   
    14     8     9 ar  
    15     8    14 ar  
    16     9    10 ar  
    17     9    31 1   
    18    10    11 ar  
    19    10    32 1   
    20    11    12 1   
    21    11    13 ar  
    22    12    33 1   
    23    13    14 ar  
    24    13    34 1   
    25    14    15 1   
    26    15    16 1   
    27    16    17 ar  
    28    16    22 ar  
    29    17    18 ar  
    30    17    35 1   
    31    18    19 1   
    32    18    20 ar  
    33    19    36 1   
    34    20    21 ar  
    35    20    37 1   
    36    21    22 ar  
    37    21    38 1   
    38    23    24 ar  
    39    24    25 ar  
    40    24    39 1   
    41    25    26 1   
    42    26    27 1   
    43    26    28 1   
@<TRIPOS>SUBSTRUCTURE
     1 F6Y         1 TEMP              0 ****  ****    0 ROOT
