@<TRIPOS>MOLECULE
F6Z
   39    43     1     0     0
SMALL
No Charge or Current Charge


@<TRIPOS>ATOM
      1 O1           1.5350     0.0240     3.4900 o          1 F6Z      -0.507000
      2 C1           1.0660     0.0180     2.3620 c          1 F6Z       0.672700
      3 C2           1.8330     0.0240     1.0990 ca         1 F6Z      -0.226600
      4 C3           3.2200     0.0360     0.8940 ca         1 F6Z      -0.010000
      5 C4           3.7060     0.0390    -0.4380 ca         1 F6Z      -0.142600
      6 O2          -0.2790     0.0060     2.0640 os         1 F6Z      -0.444100
      7 C5          -0.4720     0.0020     0.6120 c5         1 F6Z       0.357900
      8 C6          -1.2290     1.2670     0.2310 ca         1 F6Z      -0.172300
      9 C7          -0.6970     2.5400     0.5320 ca         1 F6Z      -0.005000
     10 C8          -1.3940     3.7050     0.1720 ca         1 F6Z      -0.176000
     11 C9          -2.6240     3.6120    -0.4900 ca         1 F6Z       0.170100
     12 O3          -3.2950     4.7440    -0.8360 oh         1 F6Z      -0.533100
     13 C11         -3.1610     2.3560    -0.7940 ca         1 F6Z      -0.248500
     14 C12         -2.4660     1.1900    -0.4360 ca         1 F6Z       0.186100
     15 O4          -3.0280    -0.0220    -0.7550 os         1 F6Z      -0.234200
     16 C13         -2.4450    -1.2230    -0.4330 ca         1 F6Z       0.186100
     17 C14         -3.1180    -2.4020    -0.7890 ca         1 F6Z      -0.248500
     18 C15         -2.5590    -3.6480    -0.4820 ca         1 F6Z       0.170100
     19 O5          -3.2090    -4.7920    -0.8250 oh         1 F6Z      -0.533100
     20 C16         -1.3280    -3.7170     0.1810 ca         1 F6Z      -0.176000
     21 C17         -0.6510    -2.5390     0.5380 ca         1 F6Z      -0.005000
     22 C18         -1.2060    -1.2770     0.2340 ca         1 F6Z      -0.172300
     23 C19          0.9390     0.0150     0.0630 ca         1 F6Z      -0.132300
     24 C20          1.3820     0.0170    -1.2660 ca         1 F6Z      -0.114000
     25 C21          2.7720     0.0290    -1.5120 ca         1 F6Z      -0.063000
     26 O6           5.9650     0.0600     0.2440 o          1 F6Z      -0.709500
     27 C25          5.1990     0.0520    -0.7090 c          1 F6Z       0.713600
     28 O7           5.5830     0.0540    -1.8700 o          1 F6Z      -0.709500
     29 H3           3.9000     0.0430     1.7450 ha         1 F6Z       0.152000
     30 H21          3.1210     0.0310    -2.5430 ha         1 F6Z       0.137000
     31 H7           0.2600     2.6280     1.0440 ha         1 F6Z       0.139000
     32 H8          -0.9780     4.6810     0.4070 ha         1 F6Z       0.132000
     33 HA          -4.1260     4.4820    -1.2860 ho         1 F6Z       0.461500
     34 H11         -4.1140     2.2710    -1.3090 ha         1 F6Z       0.122000
     35 H14         -4.0730    -2.3360    -1.3040 ha         1 F6Z       0.122000
     36 H5          -4.0440    -4.5470    -1.2760 ho         1 F6Z       0.461500
     37 H16         -0.8930    -4.6850     0.4180 ha         1 F6Z       0.132000
     38 H17          0.3070    -2.6090     1.0500 ha         1 F6Z       0.139000
     39 H20          0.6710     0.0100    -2.0890 ha         1 F6Z       0.106000
@<TRIPOS>BOND
     1     1     2 2   
     2     2     3 1   
     3     2     6 1   
     4     3     4 ar  
     5     3    23 ar  
     6     4     5 ar  
     7     4    29 1   
     8     5    25 ar  
     9     5    27 1   
    10     6     7 1   
    11     7     8 1   
    12     7    22 1   
    13     7    23 1   
    14     8     9 ar  
    15     8    14 ar  
    16     9    10 ar  
    17     9    31 1   
    18    10    11 ar  
    19    10    32 1   
    20    11    12 1   
    21    11    13 ar  
    22    12    33 1   
    23    13    14 ar  
    24    13    34 1   
    25    14    15 1   
    26    15    16 1   
    27    16    17 ar  
    28    16    22 ar  
    29    17    18 ar  
    30    17    35 1   
    31    18    19 1   
    32    18    20 ar  
    33    19    36 1   
    34    20    21 ar  
    35    20    37 1   
    36    21    22 ar  
    37    21    38 1   
    38    23    24 ar  
    39    24    25 ar  
    40    24    39 1   
    41    25    30 1   
    42    26    27 1   
    43    27    28 1   
@<TRIPOS>SUBSTRUCTURE
     1 F6Z         1 TEMP              0 ****  ****    0 ROOT
