@<TRIPOS>MOLECULE
F6Z
   39    43     1     0     0
SMALL
bcc


@<TRIPOS>ATOM
      1 O1           1.3910     0.0250     3.4900 o          1 F6Z      -0.582500
      2 C1           1.0380     0.0190     2.3420 c          1 F6Z       0.748200
      3 C2           1.8390     0.0250     1.1130 ca         1 F6Z      -0.226600
      4 C3           3.2160     0.0370     0.9480 ca         1 F6Z      -0.028000
      5 C4           3.7200     0.0400    -0.3460 ca         1 F6Z      -0.142600
      6 O2          -0.2600     0.0060     1.9960 os         1 F6Z      -0.420900
      7 C5          -0.4450     0.0020     0.5490 c5         1 F6Z       0.334700
      8 C6          -1.2100     1.2340     0.1610 ca         1 F6Z      -0.172300
      9 C7          -0.6630     2.5070     0.3310 ca         1 F6Z      -0.023000
     10 C8          -1.3610     3.6500     0.0140 ca         1 F6Z      -0.194000
     11 C9          -2.6590     3.5420    -0.4980 ca         1 F6Z       0.170100
     12 O3          -3.3080     4.6780    -0.7970 oh         1 F6Z      -0.494100
     13 C11         -3.2250     2.2910    -0.6820 ca         1 F6Z      -0.266500
     14 C12         -2.4970     1.1540    -0.3480 ca         1 F6Z       0.186100
     15 O4          -3.1280    -0.0230    -0.5620 os         1 F6Z      -0.234200
     16 C13         -2.4760    -1.1880    -0.3460 ca         1 F6Z       0.186100
     17 C14         -3.1840    -2.3380    -0.6790 ca         1 F6Z      -0.266500
     18 C15         -2.5950    -3.5790    -0.4920 ca         1 F6Z       0.170100
     19 O5          -3.2230    -4.7260    -0.7890 oh         1 F6Z      -0.494100
     20 C16         -1.2960    -3.6630     0.0220 ca         1 F6Z      -0.194000
     21 C17         -0.6190    -2.5060     0.3380 ca         1 F6Z      -0.023000
     22 C18         -1.1880    -1.2430     0.1640 ca         1 F6Z      -0.172300
     23 C19          0.9730     0.0140     0.0420 ca         1 F6Z      -0.132300
     24 C20          1.4520     0.0160    -1.2540 ca         1 F6Z      -0.132000
     25 C21          2.8290     0.0290    -1.4280 ca         1 F6Z      -0.081000
     26 O6           5.9490     0.0620     0.4230 o          1 F6Z      -0.814800
     27 C25          5.2270     0.0530    -0.5900 c          1 F6Z       0.924200
     28 O7           5.5950     0.0550    -1.7790 o          1 F6Z      -0.814800
     29 H3           3.8830     0.0450     1.7990 ha         1 F6Z       0.170000
     30 H21          3.2360     0.0300    -2.4300 ha         1 F6Z       0.155000
     31 H7           0.3430     2.6090     0.7200 ha         1 F6Z       0.157000
     32 H8          -0.9150     4.6250     0.1580 ha         1 F6Z       0.150000
     33 HA          -4.1860     4.4880    -1.1450 ho         1 F6Z       0.422500
     34 H11         -4.2270     2.1830    -1.0820 ha         1 F6Z       0.140000
     35 H14         -4.1870    -2.2490    -1.0800 ha         1 F6Z       0.140000
     36 H5          -4.1050    -4.5530    -1.1380 ho         1 F6Z       0.422500
     37 H16         -0.8330    -4.6290     0.1690 ha         1 F6Z       0.150000
     38 H17          0.3880    -2.5890     0.7290 ha         1 F6Z       0.157000
     39 H20          0.7820     0.0080    -2.1040 ha         1 F6Z       0.124000
@<TRIPOS>BOND
     1     1     2 2   
     2     2     3 1   
     3     2     6 1   
     4     3     4 ar  
     5     3    23 ar  
     6     4     5 ar  
     7     4    29 1   
     8     5    25 ar  
     9     5    27 1   
    10     6     7 1   
    11     7     8 1   
    12     7    22 1   
    13     7    23 1   
    14     8     9 ar  
    15     8    14 ar  
    16     9    10 ar  
    17     9    31 1   
    18    10    11 ar  
    19    10    32 1   
    20    11    12 1   
    21    11    13 ar  
    22    12    33 1   
    23    13    14 ar  
    24    13    34 1   
    25    14    15 1   
    26    15    16 1   
    27    16    17 ar  
    28    16    22 ar  
    29    17    18 ar  
    30    17    35 1   
    31    18    19 1   
    32    18    20 ar  
    33    19    36 1   
    34    20    21 ar  
    35    20    37 1   
    36    21    22 ar  
    37    21    38 1   
    38    23    24 ar  
    39    24    25 ar  
    40    24    39 1   
    41    25    30 1   
    42    26    27 1   
    43    27    28 1   
@<TRIPOS>SUBSTRUCTURE
     1 F6Z         1 TEMP              0 ****  ****    0 ROOT
