@<TRIPOS>MOLECULE
F70
   34    36     1     0     0
SMALL
bcc


@<TRIPOS>ATOM
      1 NAB         -6.9680    -2.7470     0.4840 n1         1 F70      -0.337800
      2 CAC         -6.6000    -1.6780     0.2830 c1         1 F70       0.202700
      3 CAD         -6.1670    -0.3100     0.0250 c3         1 F70       0.208500
      4 OAE         -4.7490    -0.3270     0.0560 os         1 F70      -0.409900
      5 CAF         -4.1380     0.8380    -0.1640 c          1 F70       0.659700
      6 OAG         -4.7350     1.8580    -0.3880 o          1 F70      -0.522000
      7 CAH         -2.6620     0.7220    -0.1000 ca         1 F70      -0.128600
      8 CAK         -2.0200    -0.4710     0.2240 ca         1 F70      -0.076000
      9 CAL         -0.6380    -0.5270     0.2680 ca         1 F70      -0.110500
     10 CAI         -1.9030     1.8560    -0.3790 ca         1 F70      -0.076000
     11 CAJ         -0.5240     1.8000    -0.3330 ca         1 F70      -0.110500
     12 CAM          0.1240     0.6100    -0.0040 ca         1 F70      -0.035800
     13 CAN          1.5910     0.5600     0.0560 cc         1 F70       0.195900
     14 OAO          2.0700    -0.6740    -0.1360 os         1 F70      -0.216200
     15 CAP          3.4010    -0.9110    -0.0970 ca         1 F70       0.151100
     16 CAQ          3.8090    -2.2260    -0.3000 ca         1 F70      -0.158000
     17 CAR          5.1580    -2.5110    -0.2730 ca         1 F70      -0.074000
     18 CAS          6.0990    -1.5010    -0.0460 ca         1 F70      -0.163000
     19 CAT          5.6790    -0.2040     0.1520 ca         1 F70      -0.042000
     20 CAU          4.3170     0.1130     0.1280 ca         1 F70      -0.227600
     21 CAV          3.8340     1.4830     0.3400 c          1 F70       0.595900
     22 OAW          4.5870     2.4250     0.5450 o          1 F70      -0.536100
     23 CAX          2.3940     1.6180     0.2930 cd         1 F70      -0.326200
     24 H1          -6.5530     0.0070    -0.9460 h1         1 F70       0.081200
     25 H2          -6.5850     0.3440     0.7930 h1         1 F70       0.081200
     26 H3          -2.5830    -1.3650     0.4500 ha         1 F70       0.158500
     27 H4          -0.1650    -1.4620     0.5330 ha         1 F70       0.151000
     28 H5          -2.3880     2.7850    -0.6450 ha         1 F70       0.158500
     29 H6           0.0460     2.6860    -0.5800 ha         1 F70       0.151000
     30 H7           3.0750    -3.0010    -0.4750 ha         1 F70       0.152000
     31 H8           5.4880    -3.5290    -0.4300 ha         1 F70       0.139000
     32 H9           7.1530    -1.7400    -0.0290 ha         1 F70       0.142000
     33 H10          6.3980     0.5850     0.3280 ha         1 F70       0.157000
     34 H11          1.9600     2.5920     0.4720 ha         1 F70       0.165000
@<TRIPOS>BOND
     1     1     2 3   
     2     2     3 1   
     3     3     4 1   
     4     3    24 1   
     5     3    25 1   
     6     4     5 1   
     7     5     6 2   
     8     5     7 1   
     9     7     8 ar  
    10     7    10 ar  
    11     8     9 ar  
    12     8    26 1   
    13     9    12 ar  
    14     9    27 1   
    15    10    11 ar  
    16    10    28 1   
    17    11    12 ar  
    18    11    29 1   
    19    12    13 1   
    20    13    14 1   
    21    13    23 2   
    22    14    15 1   
    23    15    16 ar  
    24    15    20 ar  
    25    16    17 ar  
    26    16    30 1   
    27    17    18 ar  
    28    17    31 1   
    29    18    19 ar  
    30    18    32 1   
    31    19    20 ar  
    32    19    33 1   
    33    20    21 1   
    34    21    22 2   
    35    21    23 1   
    36    23    34 1   
@<TRIPOS>SUBSTRUCTURE
     1 F70         1 TEMP              0 ****  ****    0 ROOT
