@<TRIPOS>MOLECULE
F70
   34    36     1     0     0
SMALL
No Charge or Current Charge


@<TRIPOS>ATOM
      1 NAB         -7.3780    -2.4980     0.8540 n1         1 F70      -0.427000
      2 CAC         -6.9090    -1.4950     0.4860 c1         1 F70       0.291900
      3 CAD         -6.3500    -0.2180     0.0150 c3         1 F70       0.231700
      4 OAE         -4.9070    -0.2550     0.0930 os         1 F70      -0.433100
      5 CAF         -4.2150     0.8580    -0.3080 c          1 F70       0.610700
      6 OAG         -4.7570     1.8730    -0.7250 o          1 F70      -0.473000
      7 CAH         -2.7140     0.7180    -0.1880 ca         1 F70      -0.128600
      8 CAK         -2.1200    -0.4690     0.2960 ca         1 F70      -0.058000
      9 CAL         -0.7220    -0.5780     0.4000 ca         1 F70      -0.092500
     10 CAI         -1.8740     1.7880    -0.5670 ca         1 F70      -0.058000
     11 CAJ         -0.4770     1.6760    -0.4620 ca         1 F70      -0.092500
     12 CAM          0.1160     0.4930     0.0290 ca         1 F70      -0.035800
     13 CAN          1.5730     0.3610     0.1370 cc         1 F70       0.195900
     14 OAO          2.1240    -0.9050     0.0120 os         1 F70      -0.216200
     15 CAP          3.5080    -0.9830    -0.0650 ca         1 F70       0.151100
     16 CAQ          4.0530    -2.2310    -0.4170 ca         1 F70      -0.140000
     17 CAR          5.4440    -2.4140    -0.4890 ca         1 F70      -0.056000
     18 CAS          6.3040    -1.3430    -0.2000 ca         1 F70      -0.145000
     19 CAT          5.7730    -0.0940     0.1620 ca         1 F70      -0.024000
     20 CAU          4.3740     0.0850     0.2310 ca         1 F70      -0.227600
     21 CAV          3.7880     1.3850     0.6090 c          1 F70       0.595900
     22 OAW          4.4590     2.3460     0.9580 o          1 F70      -0.536100
     23 CAX          2.3440     1.4430     0.5080 cd         1 F70      -0.376200
     24 H1          -6.6840    -0.0540    -1.0170 h1         1 F70       0.081200
     25 H2          -6.7570     0.5880     0.6390 h1         1 F70       0.081200
     26 H3          -2.7330    -1.3170     0.5970 ha         1 F70       0.140500
     27 H4          -0.2910    -1.5020     0.7790 ha         1 F70       0.133000
     28 H5          -2.3030     2.7120    -0.9500 ha         1 F70       0.140500
     29 H6           0.1430     2.5110    -0.7780 ha         1 F70       0.133000
     30 H7           3.3890    -3.0640    -0.6350 ha         1 F70       0.134000
     31 H8           5.8540    -3.3830    -0.7660 ha         1 F70       0.121000
     32 H9           7.3820    -1.4800    -0.2540 ha         1 F70       0.124000
     33 H10          6.4490     0.7300     0.3880 ha         1 F70       0.139000
     34 H11          1.9190     2.4120     0.7320 ha         1 F70       0.215000
@<TRIPOS>BOND
     1     1     2 3   
     2     2     3 1   
     3     3     4 1   
     4     3    24 1   
     5     3    25 1   
     6     4     5 1   
     7     5     6 2   
     8     5     7 1   
     9     7     8 ar  
    10     7    10 ar  
    11     8     9 ar  
    12     8    26 1   
    13     9    12 ar  
    14     9    27 1   
    15    10    11 ar  
    16    10    28 1   
    17    11    12 ar  
    18    11    29 1   
    19    12    13 1   
    20    13    14 1   
    21    13    23 2   
    22    14    15 1   
    23    15    16 ar  
    24    15    20 ar  
    25    16    17 ar  
    26    16    30 1   
    27    17    18 ar  
    28    17    31 1   
    29    18    19 ar  
    30    18    32 1   
    31    19    20 ar  
    32    19    33 1   
    33    20    21 1   
    34    21    22 2   
    35    21    23 1   
    36    23    34 1   
@<TRIPOS>SUBSTRUCTURE
     1 F70         1 TEMP              0 ****  ****    0 ROOT
