@<TRIPOS>MOLECULE
F71
   73    76     1     0     0
SMALL
abcg2


@<TRIPOS>ATOM
      1 C21         21.1850    28.7990    12.6610 c          1 F71       0.611700
      2 O22         21.2660    29.9140    12.1390 o          1 F71      -0.601100
      3 C22         22.0510    27.6640    12.2010 ca         1 F71      -0.106600
      4 C27         23.2960    27.9770    11.6560 ca         1 F71      -0.151000
      5 C26         24.1310    26.9630    11.1990 ca         1 F71       0.127100
      6 C25         23.7200    25.6320    11.2680 ca         1 F71      -0.123000
      7 C24         22.4740    25.3280    11.7960 ca         1 F71      -0.084000
      8 C23         21.6360    26.3330    12.2690 ca         1 F71      -0.125000
      9 O27         25.3630    27.2170    10.6710 oh         1 F71      -0.537100
     10 N11         19.0800    32.2910    15.3980 n3         1 F71      -0.745500
     11 C12         20.0010    33.2130    16.0980 c3         1 F71       0.201800
     12 C13         21.4540    32.7330    16.1040 c3         1 F71      -0.058700
     13 C14         22.0080    32.5880    14.6870 c3         1 F71      -0.089100
     14 C15         22.3070    33.6630    16.9850 c3         1 F71      -0.076400
     15 C17         19.6100    29.8490    15.5910 c3         1 F71       0.155300
     16 C18         22.4350    35.1090    16.5030 c3         1 F71      -0.091100
     17 O18         19.3670    28.7890    16.5190 oh         1 F71      -0.673000
     18 C19         19.3070    29.4320    14.1440 c3         1 F71       0.088700
     19 N20         20.3380    28.5190    13.6710 ns         1 F71      -0.505900
     20 C32         17.9240    28.7860    13.9560 c3         1 F71      -0.037100
     21 C33         17.7760    27.1070    12.0780 ca         1 F71      -0.103000
     22 C34         17.6000    26.7790    10.7370 ca         1 F71      -0.111000
     23 C35         17.3130    27.7740     9.8090 ca         1 F71      -0.110000
     24 C36         17.2010    29.0960    10.2330 ca         1 F71      -0.111000
     25 C37         17.3800    29.4180    11.5740 ca         1 F71      -0.103000
     26 C38         17.6720    28.4270    12.5150 ca         1 F71      -0.082300
     27 C1          14.8670    37.6470    19.8070 cc         1 F71       0.271900
     28 N1          13.9490    36.7680    20.1150 nd         1 F71      -0.343300
     29 O1          14.1780    35.6760    19.2680 os         1 F71      -0.088700
     30 S1          16.9700    35.1790    16.4630 ss         1 F71       0.350000
     31 C2          15.6300    34.9340    17.5300 cd         1 F71      -0.248500
     32 C3          15.2400    35.9490    18.4750 cd         1 F71       0.260500
     33 C4          15.7210    37.1910    18.7750 cc         1 F71      -0.234000
     34 C5          16.7290    33.6250    15.7580 cd         1 F71      -0.466500
     35 C6          15.6710    32.9530    16.3180 cc         1 F71       0.000000
     36 C7          15.0400    33.7050    17.3300 cc         1 F71      -0.111000
     37 S8          17.8490    32.9890    14.5690 sy         1 F71       1.230600
     38 O9          18.3910    34.1110    13.8450 o          1 F71      -0.539000
     39 O10         17.1540    31.9450    13.8600 o          1 F71      -0.539000
     40 H27         23.6080    29.0120    11.5930 ha         1 F71       0.135000
     41 H25         24.3780    24.8540    10.9020 ha         1 F71       0.131000
     42 H24         22.1500    24.2960    11.8350 ha         1 F71       0.118000
     43 H23         20.6580    26.0750    12.6500 ha         1 F71       0.116000
     44 HO27        25.5310    28.1690    10.6670 ho         1 F71       0.467000
     45 H12         19.9470    34.1730    15.5920 h1         1 F71       0.054700
     46 H12A        19.6500    33.3480    17.1270 h1         1 F71       0.054700
     47 H13         21.4840    31.7540    16.5900 hc         1 F71       0.043700
     48 H14         23.0510    32.2690    14.7160 hc         1 F71       0.045700
     49 H14A        21.4460    31.8520    14.1130 hc         1 F71       0.045700
     50 H14B        21.9570    33.5350    14.1460 hc         1 F71       0.045700
     51 H15         21.8910    33.6580    17.9970 hc         1 F71       0.039200
     52 H15A        23.3060    33.2230    17.0610 hc         1 F71       0.039200
     53 H16         18.9930    31.1650    17.1560 h1         1 F71       0.063700
     54 H16A        17.7190    30.7940    16.0090 h1         1 F71       0.063700
     55 H17         20.6650    30.1230    15.6260 h1         1 F71       0.053700
     56 H18         23.0690    35.6790    17.1850 hc         1 F71       0.035367
     57 H18A        22.8860    35.1660    15.5100 hc         1 F71       0.035367
     58 H18B        21.4670    35.6130    16.4590 hc         1 F71       0.035367
     59 HO18        20.1170    28.1820    16.5030 ho         1 F71       0.448000
     60 H19         19.3810    30.3220    13.5230 h1         1 F71       0.103700
     61 HN20        20.3350    27.5830    14.0450 hn         1 F71       0.308500
     62 H32         17.8660    27.8920    14.5790 hc         1 F71       0.062200
     63 H32A        17.1660    29.4850    14.3060 hc         1 F71       0.062200
     64 H33         18.0060    26.3280    12.7960 ha         1 F71       0.118000
     65 H34         17.6900    25.7480    10.4180 ha         1 F71       0.110500
     66 H35         17.1760    27.5230     8.7640 ha         1 F71       0.110000
     67 H36         16.9750    29.8780     9.5180 ha         1 F71       0.110500
     68 H37         17.3000    30.4480    11.8990 ha         1 F71       0.118000
     69 H4          16.5550    37.7050    18.3300 ha         1 F71       0.156000
     70 H6          15.3640    31.9670    16.0060 ha         1 F71       0.155000
     71 H7          14.1820    33.3650    17.8900 ha         1 F71       0.157000
     72 C16         18.7780    31.0290    16.0950 c3         1 F71       0.209800
     73 H1          14.8960    38.5890    20.3340 h4         1 F71       0.050100
@<TRIPOS>BOND
     1     1     2 2   
     2     1     3 1   
     3     1    19 1   
     4     3     4 ar  
     5     3     8 ar  
     6     4     5 ar  
     7     4    40 1   
     8     5     6 ar  
     9     5     9 1   
    10     6     7 ar  
    11     6    41 1   
    12     7     8 ar  
    13     7    42 1   
    14     8    43 1   
    15     9    44 1   
    16    10    11 1   
    17    10    37 1   
    18    10    72 1   
    19    11    12 1   
    20    11    45 1   
    21    11    46 1   
    22    12    13 1   
    23    12    14 1   
    24    12    47 1   
    25    13    48 1   
    26    13    49 1   
    27    13    50 1   
    28    14    16 1   
    29    14    51 1   
    30    14    52 1   
    31    15    17 1   
    32    15    18 1   
    33    15    55 1   
    34    15    72 1   
    35    16    56 1   
    36    16    57 1   
    37    16    58 1   
    38    17    59 1   
    39    18    19 1   
    40    18    20 1   
    41    18    60 1   
    42    19    61 1   
    43    20    26 1   
    44    20    62 1   
    45    20    63 1   
    46    21    22 ar  
    47    21    26 ar  
    48    21    64 1   
    49    22    23 ar  
    50    22    65 1   
    51    23    24 ar  
    52    23    66 1   
    53    24    25 ar  
    54    24    67 1   
    55    25    26 ar  
    56    25    68 1   
    57    27    28 2   
    58    27    33 1   
    59    27    73 1   
    60    28    29 1   
    61    29    32 1   
    62    30    31 1   
    63    30    34 1   
    64    31    32 1   
    65    31    36 2   
    66    32    33 2   
    67    33    69 1   
    68    34    35 2   
    69    34    37 1   
    70    35    36 1   
    71    35    70 1   
    72    36    71 1   
    73    37    38 2   
    74    37    39 2   
    75    53    72 1   
    76    54    72 1   
@<TRIPOS>SUBSTRUCTURE
     1 F71         1 TEMP              0 ****  ****    0 ROOT
