@<TRIPOS>MOLECULE
F71
   73    76     1     0     0
SMALL
No Charge or Current Charge


@<TRIPOS>ATOM
      1 C21         21.4370    28.7780    12.7660 c          1 F71       0.611700
      2 O22         21.8070    29.9390    12.6630 o          1 F71      -0.601100
      3 C22         22.2610    27.6140    12.2400 ca         1 F71      -0.106600
      4 C27         23.5230    27.8620    11.6480 ca         1 F71      -0.151000
      5 C26         24.3060    26.8070    11.1510 ca         1 F71       0.127100
      6 C25         23.8420    25.4870    11.2360 ca         1 F71      -0.123000
      7 C24         22.5930    25.2200    11.8180 ca         1 F71      -0.084000
      8 C23         21.8060    26.2730    12.3170 ca         1 F71      -0.125000
      9 O27         25.5210    27.0580    10.5840 oh         1 F71      -0.537100
     10 N11         19.0800    32.4760    15.0920 n3         1 F71      -0.745500
     11 C12         19.8790    33.4090    15.9300 c3         1 F71       0.201800
     12 C13         21.3290    32.9540    16.2540 c3         1 F71      -0.058700
     13 C14         22.2030    32.8650    14.9780 c3         1 F71      -0.089100
     14 C15         21.9870    33.8300    17.3580 c3         1 F71      -0.076400
     15 C17         19.6340    29.9710    15.2760 c3         1 F71       0.155300
     16 C18         22.1600    35.3280    17.0140 c3         1 F71      -0.091100
     17 O18         19.5820    28.9030    16.2440 oh         1 F71      -0.673000
     18 C19         19.2490    29.4350    13.8590 c3         1 F71       0.088700
     19 N20         20.2380    28.4600    13.3660 ns         1 F71      -0.505900
     20 C32         17.8280    28.8100    13.7640 c3         1 F71      -0.037100
     21 C33         17.4340    26.8890    12.1320 ca         1 F71      -0.103000
     22 C34         17.1580    26.4050    10.8420 ca         1 F71      -0.111000
     23 C35         16.9580    27.3030     9.7800 ca         1 F71      -0.110000
     24 C36         17.0330    28.6870    10.0100 ca         1 F71      -0.111000
     25 C37         17.3090    29.1720    11.3000 ca         1 F71      -0.103000
     26 C38         17.5130    28.2770    12.3690 ca         1 F71      -0.082300
     27 C1          15.1280    37.6070    19.9300 cc         1 F71       0.271900
     28 N1          14.3210    36.7050    20.4690 nd         1 F71      -0.343300
     29 O1          14.4960    35.5430    19.6270 os         1 F71      -0.088700
     30 S1          17.0070    35.3720    16.3540 ss         1 F71       0.350000
     31 C2          15.8400    34.9750    17.6240 cd         1 F71      -0.248500
     32 C3          15.4030    35.8710    18.6550 cd         1 F71       0.260500
     33 C4          15.8270    37.1470    18.8010 cc         1 F71      -0.234000
     34 C5          16.8540    33.7260    15.7330 cd         1 F71      -0.466500
     35 C6          15.9420    32.9820    16.4440 cc         1 F71       0.000000
     36 C7          15.3700    33.6900    17.5290 cc         1 F71      -0.111000
     37 S8          17.7550    33.2120    14.3050 sy         1 F71       1.230600
     38 O9          18.2810    34.3710    13.5780 o          1 F71      -0.539000
     39 O10         17.0320    32.1440    13.6090 o          1 F71      -0.539000
     40 H27         23.8920    28.8830    11.5770 ha         1 F71       0.135000
     41 H25         24.4490    24.6710    10.8510 ha         1 F71       0.131000
     42 H24         22.2330    24.1950    11.8820 ha         1 F71       0.118000
     43 H23         20.8430    26.0260    12.7560 ha         1 F71       0.116000
     44 HO27        25.6840    28.0250    10.6070 ho         1 F71       0.467000
     45 H12         19.9610    34.3850    15.4330 h1         1 F71       0.054700
     46 H12A        19.3550    33.5870    16.8800 h1         1 F71       0.054700
     47 H13         21.2770    31.9460    16.6790 hc         1 F71       0.043700
     48 H14         23.2120    32.5120    15.2210 hc         1 F71       0.045700
     49 H14A        21.7660    32.1660    14.2570 hc         1 F71       0.045700
     50 H14B        22.2860    33.8400    14.4840 hc         1 F71       0.045700
     51 H15         21.3890    33.7520    18.2740 hc         1 F71       0.039200
     52 H15A        22.9720    33.4120    17.6020 hc         1 F71       0.039200
     53 H16         18.9340    31.2830    16.8470 h1         1 F71       0.063700
     54 H16A        17.7180    30.9060    15.6660 h1         1 F71       0.063700
     55 H17         20.6700    30.3270    15.2100 h1         1 F71       0.053700
     56 H18         22.6300    35.8540    17.8530 hc         1 F71       0.035367
     57 H18A        22.8000    35.4630    16.1340 hc         1 F71       0.035367
     58 H18B        21.1930    35.8060    16.8190 hc         1 F71       0.035367
     59 HO18        20.1950    28.2050    15.9250 ho         1 F71       0.448000
     60 H19         19.2690    30.2980    13.1780 h1         1 F71       0.103700
     61 HN20        19.9840    27.4810    13.3730 hn         1 F71       0.308500
     62 H32         17.7360    28.0030    14.5010 hc         1 F71       0.062200
     63 H32A        17.0720    29.5510    14.0400 hc         1 F71       0.062200
     64 H33         17.5880    26.1840    12.9460 ha         1 F71       0.118000
     65 H34         17.1000    25.3330    10.6650 ha         1 F71       0.110500
     66 H35         16.7450    26.9280     8.7820 ha         1 F71       0.110000
     67 H36         16.8770    29.3840     9.1900 ha         1 F71       0.110500
     68 H37         17.3660    30.2450    11.4700 ha         1 F71       0.118000
     69 H4          16.5350    37.7070    18.2030 ha         1 F71       0.156000
     70 H6          15.6700    31.9530    16.2180 ha         1 F71       0.155000
     71 H7          14.6390    33.2400    18.1950 ha         1 F71       0.157000
     72 C16         18.7750    31.1780    15.7660 c3         1 F71       0.209800
     73 H1          15.1870    38.5890    20.3800 h4         1 F71       0.050100
@<TRIPOS>BOND
     1     1     2 2   
     2     1     3 1   
     3     1    19 1   
     4     3     4 ar  
     5     3     8 ar  
     6     4     5 ar  
     7     4    40 1   
     8     5     6 ar  
     9     5     9 1   
    10     6     7 ar  
    11     6    41 1   
    12     7     8 ar  
    13     7    42 1   
    14     8    43 1   
    15     9    44 1   
    16    10    11 1   
    17    10    37 1   
    18    10    72 1   
    19    11    12 1   
    20    11    45 1   
    21    11    46 1   
    22    12    13 1   
    23    12    14 1   
    24    12    47 1   
    25    13    48 1   
    26    13    49 1   
    27    13    50 1   
    28    14    16 1   
    29    14    51 1   
    30    14    52 1   
    31    15    17 1   
    32    15    18 1   
    33    15    55 1   
    34    15    72 1   
    35    16    56 1   
    36    16    57 1   
    37    16    58 1   
    38    17    59 1   
    39    18    19 1   
    40    18    20 1   
    41    18    60 1   
    42    19    61 1   
    43    20    26 1   
    44    20    62 1   
    45    20    63 1   
    46    21    22 ar  
    47    21    26 ar  
    48    21    64 1   
    49    22    23 ar  
    50    22    65 1   
    51    23    24 ar  
    52    23    66 1   
    53    24    25 ar  
    54    24    67 1   
    55    25    26 ar  
    56    25    68 1   
    57    27    28 2   
    58    27    33 1   
    59    27    73 1   
    60    28    29 1   
    61    29    32 1   
    62    30    31 1   
    63    30    34 1   
    64    31    32 1   
    65    31    36 2   
    66    32    33 2   
    67    33    69 1   
    68    34    35 2   
    69    34    37 1   
    70    35    36 1   
    71    35    70 1   
    72    36    71 1   
    73    37    38 2   
    74    37    39 2   
    75    53    72 1   
    76    54    72 1   
@<TRIPOS>SUBSTRUCTURE
     1 F71         1 TEMP              0 ****  ****    0 ROOT
