@<TRIPOS>MOLECULE
F72
   76    80     1     0     0
SMALL
No Charge or Current Charge


@<TRIPOS>ATOM
      1 C21          2.7930    -0.5170    -1.2380 c          1 F72       0.615700
      2 O22          2.8590    -1.1410    -0.1880 o          1 F72      -0.593100
      3 C22          3.6560    -0.8650    -2.4370 ca         1 F72      -0.116600
      4 C27          4.5650    -1.9460    -2.3460 ca         1 F72      -0.098000
      5 C26          5.3810    -2.2960    -3.4330 ca         1 F72       0.128100
      6 C25          5.3050    -1.5730    -4.6320 ca         1 F72      -0.194000
      7 C24          4.4110    -0.4970    -4.7420 ca         1 F72      -0.073000
      8 C23          3.5910    -0.1430    -3.6560 ca         1 F72      -0.131000
      9 O27          6.2480    -3.3410    -3.3200 oh         1 F72      -0.529100
     10 C11         -7.2250     2.4340     0.0450 c6         1 F72      -0.073400
     11 N11         -2.8470     1.1230     0.0900 n3         1 F72      -0.785500
     12 C12         -3.5420     1.5830    -1.1390 c3         1 F72       0.241800
     13 C13         -5.1030     1.5650    -1.1100 c6         1 F72      -0.080700
     14 C14         -5.6860     2.0190    -2.4780 c6         1 F72      -0.068900
     15 C15         -5.6770     2.4500     0.0360 c6         1 F72      -0.068900
     16 C17         -0.4340     1.1430    -0.8790 c3         1 F72       0.116300
     17 C18         -7.7990     2.8740    -1.3240 c6         1 F72      -0.075400
     18 O18         -0.5110     1.9510    -2.0770 oh         1 F72      -0.651000
     19 C19          1.0340     1.0830    -0.3580 c3         1 F72       0.080700
     20 C20         -7.2350     2.0020    -2.4710 c6         1 F72      -0.073400
     21 N20          1.9210     0.5390    -1.3980 ns         1 F72      -0.497900
     22 C32          1.5960     2.4270     0.1790 c3         1 F72      -0.043100
     23 C33          4.1280     2.7170     0.1360 ca         1 F72      -0.099500
     24 C34          5.3970     2.5510     0.7160 ca         1 F72      -0.106000
     25 C35          5.5220     1.9320     1.9710 ca         1 F72      -0.104000
     26 C36          4.3760     1.4790     2.6460 ca         1 F72      -0.106000
     27 C37          3.1070     1.6450     2.0670 ca         1 F72      -0.099500
     28 C38          2.9750     2.2660     0.8090 ca         1 F72      -0.083300
     29 C1           0.9730    -0.9350     5.4730 cc         1 F72       0.385100
     30 N1           1.3650    -1.5740     4.3590 nd         1 F72      -0.539100
     31 S1          -0.5920    -0.0930     5.4660 ss         1 F72       0.105800
     32 C2           0.3650    -1.3940     3.4110 ca         1 F72       0.128400
     33 C3          -0.7300    -0.6530     3.8070 ca         1 F72      -0.228000
     34 C4          -1.8070    -0.3940     2.9450 ca         1 F72       0.039000
     35 C5          -1.7520    -0.8990     1.6290 ca         1 F72      -0.291500
     36 C6          -0.6390    -1.6730     1.2170 ca         1 F72      -0.032000
     37 C7           0.4210    -1.9190     2.1120 ca         1 F72      -0.075000
     38 S8          -3.0970    -0.5280     0.4860 sy         1 F72       1.187600
     39 O9          -2.8970    -1.3030    -0.7430 o          1 F72      -0.538000
     40 O10         -4.3460    -0.5780     1.2540 o          1 F72      -0.538000
     41 H27          4.6420    -2.5200    -1.4260 ha         1 F72       0.151000
     42 H25          5.9340    -1.8380    -5.4790 ha         1 F72       0.116000
     43 H24          4.3510     0.0660    -5.6720 ha         1 F72       0.121000
     44 H23          2.9130     0.6970    -3.7810 ha         1 F72       0.123000
     45 HO27         6.7300    -3.4380    -4.1700 ho         1 F72       0.466000
     46 H11         -7.5830     1.4240     0.2890 hc         1 F72       0.041700
     47 H11A        -7.6000     3.0970     0.8360 hc         1 F72       0.041700
     48 H12         -3.2510     2.6210    -1.3500 h1         1 F72       0.054200
     49 H12A        -3.2080     0.9890    -2.0020 h1         1 F72       0.054200
     50 H13         -5.4160     0.5260    -0.9470 hc         1 F72       0.070700
     51 H14         -5.3310     3.0310    -2.7190 hc         1 F72       0.037200
     52 H14A        -5.3170     1.3630    -3.2790 hc         1 F72       0.037200
     53 H15         -5.3200     3.4830    -0.0780 hc         1 F72       0.037200
     54 H15A        -5.3060     2.1010     1.0090 hc         1 F72       0.037200
     55 H16         -1.4760     2.7360     0.1580 h1         1 F72       0.071200
     56 H16A        -1.0440     1.4230     1.1970 h1         1 F72       0.071200
     57 H17         -0.7000     0.1090    -1.1310 h1         1 F72       0.089700
     58 H18         -8.8960     2.8070    -1.3080 hc         1 F72       0.038200
     59 H18A        -7.5530     3.9300    -1.5060 hc         1 F72       0.038200
     60 HO18        -0.2710     2.8710    -1.8370 ho         1 F72       0.440000
     61 H19          1.0330     0.3840     0.4890 h1         1 F72       0.095700
     62 H20         -7.6160     2.3640    -3.4360 hc         1 F72       0.041700
     63 H20A        -7.5930     0.9690    -2.3620 hc         1 F72       0.041700
     64 HN20         1.8970     0.9750    -2.3100 hn         1 F72       0.323500
     65 H32          1.6330     3.1610    -0.6350 hc         1 F72       0.049200
     66 H32A         0.9130     2.8410     0.9310 hc         1 F72       0.049200
     67 H33          4.0420     3.1920    -0.8390 ha         1 F72       0.107500
     68 H34          6.2840     2.9000     0.1910 ha         1 F72       0.113000
     69 H35          6.5050     1.8030     2.4190 ha         1 F72       0.113000
     70 H36          4.4710     0.9970     3.6170 ha         1 F72       0.113000
     71 H37          2.2260     1.2860     2.5940 ha         1 F72       0.107500
     72 H4          -2.6540     0.2040     3.2820 ha         1 F72       0.155000
     73 H6          -0.5830    -2.0760     0.2070 ha         1 F72       0.131000
     74 H7           1.2810    -2.5030     1.7960 ha         1 F72       0.135000
     75 C16         -1.4520     1.6380     0.2030 c3         1 F72       0.188800
     76 H1           1.5590    -0.9050     6.3830 h5         1 F72       0.059800
@<TRIPOS>BOND
     1     1     2 2   
     2     1     3 1   
     3     1    21 1   
     4     3     4 ar  
     5     3     8 ar  
     6     4     5 ar  
     7     4    41 1   
     8     5     6 ar  
     9     5     9 1   
    10     6     7 ar  
    11     6    42 1   
    12     7     8 ar  
    13     7    43 1   
    14     8    44 1   
    15     9    45 1   
    16    10    15 1   
    17    10    17 1   
    18    10    46 1   
    19    10    47 1   
    20    11    12 1   
    21    11    38 1   
    22    11    75 1   
    23    12    13 1   
    24    12    48 1   
    25    12    49 1   
    26    13    14 1   
    27    13    15 1   
    28    13    50 1   
    29    14    20 1   
    30    14    51 1   
    31    14    52 1   
    32    15    53 1   
    33    15    54 1   
    34    16    18 1   
    35    16    19 1   
    36    16    57 1   
    37    16    75 1   
    38    17    20 1   
    39    17    58 1   
    40    17    59 1   
    41    18    60 1   
    42    19    21 1   
    43    19    22 1   
    44    19    61 1   
    45    20    62 1   
    46    20    63 1   
    47    21    64 1   
    48    22    28 1   
    49    22    65 1   
    50    22    66 1   
    51    23    24 ar  
    52    23    28 ar  
    53    23    67 1   
    54    24    25 ar  
    55    24    68 1   
    56    25    26 ar  
    57    25    69 1   
    58    26    27 ar  
    59    26    70 1   
    60    27    28 ar  
    61    27    71 1   
    62    29    30 2   
    63    29    31 1   
    64    29    76 1   
    65    30    32 1   
    66    31    33 1   
    67    32    33 ar  
    68    32    37 ar  
    69    33    34 ar  
    70    34    35 ar  
    71    34    72 1   
    72    35    36 ar  
    73    35    38 1   
    74    36    37 ar  
    75    36    73 1   
    76    37    74 1   
    77    38    39 2   
    78    38    40 2   
    79    55    75 1   
    80    56    75 1   
@<TRIPOS>SUBSTRUCTURE
     1 F72         1 TEMP              0 ****  ****    0 ROOT
