@<TRIPOS>MOLECULE
F72
   76    80     1     0     0
SMALL
abcg2


@<TRIPOS>ATOM
      1 C21          2.7670     0.0530     0.2420 c          1 F72       0.615700
      2 O22          2.7340     0.0820     1.4630 o          1 F72      -0.593100
      3 C22          3.7230    -0.8380    -0.4850 ca         1 F72      -0.116600
      4 C27          4.9350    -1.1270     0.1290 ca         1 F72      -0.098000
      5 C26          5.8390    -1.9890    -0.4820 ca         1 F72       0.128100
      6 C25          5.5110    -2.5860    -1.6980 ca         1 F72      -0.194000
      7 C24          4.2920    -2.3080    -2.2930 ca         1 F72      -0.073000
      8 C23          3.3940    -1.4330    -1.7000 ca         1 F72      -0.131000
      9 O27          7.0090    -2.2140     0.1460 oh         1 F72      -0.529100
     10 C11         -5.9550     3.7410     0.2220 c6         1 F72      -0.073400
     11 N11         -2.8490     0.5460     0.1160 n3         1 F72      -0.785500
     12 C12         -3.7660     0.7690    -1.0040 c3         1 F72       0.241800
     13 C13         -5.0200     1.5540    -0.6360 c6         1 F72      -0.080700
     14 C14         -5.9120     1.6850    -1.8710 c6         1 F72      -0.068900
     15 C15         -4.6940     2.9320    -0.0640 c6         1 F72      -0.068900
     16 C17         -0.4680     0.9550    -0.5690 c3         1 F72       0.116300
     17 C18         -6.8320     3.8680    -1.0190 c6         1 F72      -0.075400
     18 O18         -0.6430     1.1680    -1.9490 oh         1 F72      -0.651000
     19 C19          0.8420     1.5580    -0.0350 c3         1 F72       0.080700
     20 C20         -7.1730     2.4940    -1.5850 c6         1 F72      -0.073400
     21 N20          1.9570     0.7920    -0.5380 ns         1 F72      -0.497900
     22 C32          1.0100     3.0490    -0.3560 c3         1 F72      -0.043100
     23 C33          3.4550     3.6500    -0.2940 ca         1 F72      -0.099500
     24 C34          4.5760     4.1390     0.3650 ca         1 F72      -0.106000
     25 C35          4.4680     4.6190     1.6630 ca         1 F72      -0.104000
     26 C36          3.2310     4.6080     2.2960 ca         1 F72      -0.106000
     27 C37          2.1150     4.1150     1.6330 ca         1 F72      -0.099500
     28 C38          2.2130     3.6280     0.3320 ca         1 F72      -0.083300
     29 C1           2.2720    -4.1740     0.0290 cc         1 F72       0.385100
     30 N1           1.3420    -4.2370    -0.8560 nd         1 F72      -0.539100
     31 S1           1.9480    -3.2230     1.4370 ss         1 F72       0.105800
     32 C2           0.2580    -3.4950    -0.4640 ca         1 F72       0.128400
     33 C3           0.3950    -2.8550     0.7800 ca         1 F72      -0.228000
     34 C4          -0.6120    -2.0570     1.3100 ca         1 F72       0.039000
     35 C5          -1.7600    -1.9080     0.5540 ca         1 F72      -0.291500
     36 C6          -1.9280    -2.5480    -0.6820 ca         1 F72      -0.032000
     37 C7          -0.9240    -3.3400    -1.1920 ca         1 F72      -0.075000
     38 S8          -3.0150    -0.7670     1.0810 sy         1 F72       1.187600
     39 O9          -4.3100    -1.3560     0.7830 o          1 F72      -0.538000
     40 O10         -2.6930    -0.3880     2.4490 o          1 F72      -0.538000
     41 H27          5.1840    -0.6790     1.0820 ha         1 F72       0.151000
     42 H25          6.2040    -3.2690    -2.1770 ha         1 F72       0.116000
     43 H24          4.0360    -2.7880    -3.2290 ha         1 F72       0.121000
     44 H23          2.4340    -1.2620    -2.1690 ha         1 F72       0.123000
     45 HO27         7.5510    -2.8300    -0.3600 ho         1 F72       0.466000
     46 H11         -6.5260     3.2490     1.0170 hc         1 F72       0.041700
     47 H11A        -5.6850     4.7300     0.6010 hc         1 F72       0.041700
     48 H12         -3.2050     1.3060    -1.7690 h1         1 F72       0.054200
     49 H12A        -4.0470    -0.1830    -1.4590 h1         1 F72       0.054200
     50 H13         -5.5740     0.9880     0.1220 hc         1 F72       0.070700
     51 H14         -5.3450     2.1750    -2.6720 hc         1 F72       0.037200
     52 H14A        -6.1800     0.6920    -2.2430 hc         1 F72       0.037200
     53 H15         -4.0670     3.4790    -0.7800 hc         1 F72       0.037200
     54 H15A        -4.1100     2.8340     0.8550 hc         1 F72       0.037200
     55 H16         -1.9650     2.4130     0.0400 h1         1 F72       0.071200
     56 H16A        -1.3840     1.4040     1.3270 h1         1 F72       0.071200
     57 H17         -0.3570    -0.1250    -0.4660 h1         1 F72       0.089700
     58 H18         -7.7440     4.4210    -0.7840 hc         1 F72       0.038200
     59 H18A        -6.3000     4.4500    -1.7800 hc         1 F72       0.038200
     60 HO18        -0.8170     2.1020    -2.1100 ho         1 F72       0.440000
     61 H19          0.8430     1.4350     1.0500 h1         1 F72       0.095700
     62 H20         -7.7670     2.5930    -2.4970 hc         1 F72       0.041700
     63 H20A        -7.7970     1.9510    -0.8660 hc         1 F72       0.041700
     64 HN20         2.0880     0.7730    -1.5380 hn         1 F72       0.323500
     65 H32          1.1030     3.1870    -1.4360 hc         1 F72       0.049200
     66 H32A         0.1110     3.5880    -0.0420 hc         1 F72       0.049200
     67 H33          3.5510     3.2880    -1.3110 ha         1 F72       0.107500
     68 H34          5.5340     4.1470    -0.1390 ha         1 F72       0.113000
     69 H35          5.3400     5.0020     2.1770 ha         1 F72       0.113000
     70 H36          3.1330     4.9870     3.3050 ha         1 F72       0.113000
     71 H37          1.1540     4.1150     2.1350 ha         1 F72       0.107500
     72 H4          -0.4890    -1.5610     2.2630 ha         1 F72       0.155000
     73 H6          -2.8420    -2.4250    -1.2480 ha         1 F72       0.131000
     74 H7          -1.0420    -3.8360    -2.1460 ha         1 F72       0.135000
     75 C16         -1.6690     1.3880     0.2750 c3         1 F72       0.188800
     76 H1           3.2270    -4.6730    -0.0700 h5         1 F72       0.059800
@<TRIPOS>BOND
     1     1     2 2   
     2     1     3 1   
     3     1    21 1   
     4     3     4 ar  
     5     3     8 ar  
     6     4     5 ar  
     7     4    41 1   
     8     5     6 ar  
     9     5     9 1   
    10     6     7 ar  
    11     6    42 1   
    12     7     8 ar  
    13     7    43 1   
    14     8    44 1   
    15     9    45 1   
    16    10    15 1   
    17    10    17 1   
    18    10    46 1   
    19    10    47 1   
    20    11    12 1   
    21    11    38 1   
    22    11    75 1   
    23    12    13 1   
    24    12    48 1   
    25    12    49 1   
    26    13    14 1   
    27    13    15 1   
    28    13    50 1   
    29    14    20 1   
    30    14    51 1   
    31    14    52 1   
    32    15    53 1   
    33    15    54 1   
    34    16    18 1   
    35    16    19 1   
    36    16    57 1   
    37    16    75 1   
    38    17    20 1   
    39    17    58 1   
    40    17    59 1   
    41    18    60 1   
    42    19    21 1   
    43    19    22 1   
    44    19    61 1   
    45    20    62 1   
    46    20    63 1   
    47    21    64 1   
    48    22    28 1   
    49    22    65 1   
    50    22    66 1   
    51    23    24 ar  
    52    23    28 ar  
    53    23    67 1   
    54    24    25 ar  
    55    24    68 1   
    56    25    26 ar  
    57    25    69 1   
    58    26    27 ar  
    59    26    70 1   
    60    27    28 ar  
    61    27    71 1   
    62    29    30 2   
    63    29    31 1   
    64    29    76 1   
    65    30    32 1   
    66    31    33 1   
    67    32    33 ar  
    68    32    37 ar  
    69    33    34 ar  
    70    34    35 ar  
    71    34    72 1   
    72    35    36 ar  
    73    35    38 1   
    74    36    37 ar  
    75    36    73 1   
    76    37    74 1   
    77    38    39 2   
    78    38    40 2   
    79    55    75 1   
    80    56    75 1   
@<TRIPOS>SUBSTRUCTURE
     1 F72         1 TEMP              0 ****  ****    0 ROOT
