@<TRIPOS>MOLECULE
F75
   15    15     1     0     0
SMALL
bcc


@<TRIPOS>ATOM
      1 N           -3.4820     0.7390    -0.4420 n8         1 F75      -0.898800
      2 CA1         -2.4250     1.2150     0.4260 c3         1 F75       0.123500
      3 C2          -1.1510     0.4920     0.1270 cc         1 F75       0.396700
      4 N2           0.0340     0.8670     0.4710 nd         1 F75      -0.601000
      5 CA2          0.9870    -0.0430     0.0880 cd         1 F75       0.306800
      6 C            2.4550     0.1810     0.3860 c          1 F75       0.840100
      7 O            3.2300    -0.7090    -0.0140 o          1 F75      -0.811800
      8 C5           0.4950    -1.1280    -0.5700 cc         1 F75      -0.182400
      9 S1          -1.2090    -1.0190    -0.7180 ss         1 F75      -0.295300
     10 H1          -4.3840     0.9740    -0.0510 hn         1 F75       0.336300
     11 H2          -3.4300     1.1950    -1.3430 hn         1 F75       0.336300
     12 H4          -2.2310     2.2930     0.3770 h1         1 F75       0.042700
     13 H5          -2.7050     1.0000     1.4610 h1         1 F75       0.042700
     14 H7           1.0450    -1.9620    -0.9730 h4         1 F75       0.177000
     15 OXT          2.7450     1.2230     0.9980 o          1 F75      -0.811800
@<TRIPOS>BOND
     1     1     2 1   
     2     1    10 1   
     3     1    11 1   
     4     2     3 1   
     5     2    12 1   
     6     2    13 1   
     7     3     4 2   
     8     3     9 1   
     9     4     5 1   
    10     5     6 1   
    11     5     8 2   
    12     6     7 1   
    13     6    15 1   
    14     8     9 1   
    15     8    14 1   
@<TRIPOS>SUBSTRUCTURE
     1 F75         1 TEMP              0 ****  ****    0 ROOT
