@<TRIPOS>MOLECULE
F75
   15    15     1     0     0
SMALL
No Charge or Current Charge


@<TRIPOS>ATOM
      1 N           -3.2040     1.5010    -0.7390 n8         1 F75      -0.898800
      2 CA1         -2.6800     0.7640     0.4510 c3         1 F75       0.123500
      3 C2          -1.3030     0.1340     0.2630 cc         1 F75       0.396700
      4 N2          -0.1830     0.8400     0.1760 nd         1 F75      -0.601000
      5 CA2          0.9320    -0.0070     0.0100 cd         1 F75       0.306800
      6 C            2.4030     0.4090    -0.1340 c          1 F75       0.840100
      7 O            3.2720    -0.4530    -0.2730 o          1 F75      -0.811800
      8 C5           0.5870    -1.3490    -0.0170 cc         1 F75      -0.182400
      9 S1          -1.1270    -1.5990     0.1630 ss         1 F75      -0.295300
     10 H1          -4.0850     1.9640    -0.4890 hn         1 F75       0.336300
     11 H2          -2.5620     2.2700    -0.9600 hn         1 F75       0.336300
     12 H4          -2.6300     1.4640     1.2960 h1         1 F75       0.042700
     13 H5          -3.4000    -0.0230     0.7150 h1         1 F75       0.042700
     14 H7           1.2480    -2.1990    -0.1320 h4         1 F75       0.177000
     15 OXT          2.7060     1.6030    -0.1080 o          1 F75      -0.811800
@<TRIPOS>BOND
     1     1     2 1   
     2     1    10 1   
     3     1    11 1   
     4     2     3 1   
     5     2    12 1   
     6     2    13 1   
     7     3     4 2   
     8     3     9 1   
     9     4     5 1   
    10     5     6 1   
    11     5     8 2   
    12     6     7 1   
    13     6    15 1   
    14     8     9 1   
    15     8    14 1   
@<TRIPOS>SUBSTRUCTURE
     1 F75         1 TEMP              0 ****  ****    0 ROOT
