@<TRIPOS>MOLECULE
F76
   55    58     1     0     0
SMALL
No Charge or Current Charge


@<TRIPOS>ATOM
      1 N01         -6.0630    -0.3660     1.1000 nb         1 F76      -0.668000
      2 C02         -5.2880    -1.4210     0.7840 ca         1 F76       0.275000
      3 C03         -5.6670    -2.7010     1.2320 ca         1 F76      -0.077000
      4 C04         -4.9050    -3.8370     0.9120 ca         1 F76      -0.103000
      5 C05         -3.7510    -3.7010     0.1300 ca         1 F76      -0.098000
      6 C06         -3.3570    -2.4340    -0.3260 ca         1 F76      -0.092000
      7 C07         -4.1150    -1.2820     0.0020 ca         1 F76      -0.050000
      8 C08         -3.7350     0.0090    -0.4420 ca         1 F76      -0.084600
      9 C09         -2.5020     0.1910    -1.2860 c          1 F76       0.605700
     10 O10         -2.5410     0.5200    -2.4640 o          1 F76      -0.469000
     11 O11         -1.3410    -0.0330    -0.5900 os         1 F76      -0.400100
     12 C12         -0.0790     0.1180    -1.2890 c3         1 F76       0.067600
     13 C13          1.1410    -0.1700    -0.3840 c          1 F76       0.607100
     14 O14          1.0290    -0.4930     0.7940 o          1 F76      -0.524100
     15 N15          2.3580    -0.0250    -1.0390 ns         1 F76      -0.154000
     16 C16          3.7040    -0.1890    -0.6110 ca         1 F76       0.039000
     17 C17          4.0710    -0.5970     0.6900 ca         1 F76      -0.178500
     18 C18          5.4250    -0.7380     1.0400 ca         1 F76       0.023000
     19 C19          6.4310    -0.4740     0.0910 ca         1 F76      -0.309500
     20 S20          8.1540    -0.6560     0.5420 sy         1 F76       1.133600
     21 O21          8.3000    -1.6010     1.6490 o          1 F76      -0.545500
     22 O22          8.9840    -0.7030    -0.6590 o          1 F76      -0.545500
     23 N23          8.4800     0.8100     1.1860 n8         1 F76      -1.002100
     24 C24          6.0740    -0.0690    -1.2100 ca         1 F76       0.023000
     25 C25          4.7180     0.0700    -1.5510 ca         1 F76      -0.178500
     26 C26         -4.5430     1.1260    -0.0870 ca         1 F76      -0.063300
     27 C27         -4.1010     2.5370    -0.5430 c3         1 F76      -0.030100
     28 C28         -4.5240     3.7120     0.3610 c3         1 F76      -0.071400
     29 C29         -5.9740     4.1870     0.1390 c3         1 F76      -0.075400
     30 C30         -7.0000     3.0430     0.0570 c3         1 F76      -0.072400
     31 C31         -6.7550     1.9280     1.0940 c3         1 F76      -0.131700
     32 C32         -5.7220     0.8730     0.6770 ca         1 F76       0.380300
     33 H1          -6.5660    -2.8120     1.8320 ha         1 F76       0.133000
     34 H2          -5.2140    -4.8180     1.2660 ha         1 F76       0.119000
     35 H3          -3.1610    -4.5790    -0.1250 ha         1 F76       0.117000
     36 H4          -2.4590    -2.3670    -0.9350 ha         1 F76       0.115000
     37 H5          -0.0250    -0.5690    -2.1430 h1         1 F76       0.068200
     38 H6           0.0300     1.1410    -1.6720 h1         1 F76       0.068200
     39 H7           2.2740     0.2500    -2.0100 hn         1 F76       0.155000
     40 H8           3.3260    -0.8110     1.4480 ha         1 F76       0.134500
     41 H9           5.6850    -1.0530     2.0500 ha         1 F76       0.139500
     42 H10          9.3030     1.0760     0.6490 hn         1 F76       0.471500
     43 H11          7.7380     1.3850     0.7950 hn         1 F76       0.471500
     44 H12          6.8370     0.1370    -1.9590 ha         1 F76       0.139500
     45 H13          4.4580     0.3840    -2.5600 ha         1 F76       0.134500
     46 H14         -3.0070     2.5860    -0.5860 hc         1 F76       0.053700
     47 H15         -4.4460     2.7240    -1.5680 hc         1 F76       0.053700
     48 H16         -4.3670     3.4400     1.4120 hc         1 F76       0.046200
     49 H17         -3.8580     4.5630     0.1680 hc         1 F76       0.046200
     50 H18         -6.2480     4.8630     0.9590 hc         1 F76       0.041700
     51 H19         -6.0290     4.7770    -0.7840 hc         1 F76       0.041700
     52 H20         -8.0000     3.4670     0.2130 hc         1 F76       0.046200
     53 H21         -7.0040     2.6100    -0.9510 hc         1 F76       0.046200
     54 H22         -6.4740     2.3690     2.0580 hc         1 F76       0.064700
     55 H23         -7.7210     1.4390     1.2710 hc         1 F76       0.064700
@<TRIPOS>BOND
     1     1     2 ar  
     2     1    32 ar  
     3     2     3 ar  
     4     2     7 ar  
     5     3     4 ar  
     6     3    33 1   
     7     4     5 ar  
     8     4    34 1   
     9     5     6 ar  
    10     5    35 1   
    11     6     7 ar  
    12     6    36 1   
    13     7     8 ar  
    14     8     9 1   
    15     8    26 ar  
    16     9    10 2   
    17     9    11 1   
    18    11    12 1   
    19    12    13 1   
    20    12    37 1   
    21    12    38 1   
    22    13    14 2   
    23    13    15 1   
    24    15    16 1   
    25    15    39 1   
    26    16    17 ar  
    27    16    25 ar  
    28    17    18 ar  
    29    17    40 1   
    30    18    19 ar  
    31    18    41 1   
    32    19    20 1   
    33    19    24 ar  
    34    20    21 2   
    35    20    22 2   
    36    20    23 1   
    37    23    42 1   
    38    23    43 1   
    39    24    25 ar  
    40    24    44 1   
    41    25    45 1   
    42    26    27 1   
    43    26    32 ar  
    44    27    28 1   
    45    27    46 1   
    46    27    47 1   
    47    28    29 1   
    48    28    48 1   
    49    28    49 1   
    50    29    30 1   
    51    29    50 1   
    52    29    51 1   
    53    30    31 1   
    54    30    52 1   
    55    30    53 1   
    56    31    32 1   
    57    31    54 1   
    58    31    55 1   
@<TRIPOS>SUBSTRUCTURE
     1 F76         1 TEMP              0 ****  ****    0 ROOT
