@<TRIPOS>MOLECULE
F76
   55    58     1     0     0
SMALL
abcg2


@<TRIPOS>ATOM
      1 N01         -5.9050    -0.3360     1.1440 nb         1 F76      -0.668000
      2 C02         -5.2770    -1.4650     0.7570 ca         1 F76       0.275000
      3 C03         -5.7770    -2.7080     1.2070 ca         1 F76      -0.077000
      4 C04         -5.1690    -3.8730     0.8280 ca         1 F76      -0.103000
      5 C05         -4.0400    -3.8450    -0.0150 ca         1 F76      -0.098000
      6 C06         -3.5370    -2.6550    -0.4660 ca         1 F76      -0.092000
      7 C07         -4.1470    -1.4370    -0.0880 ca         1 F76      -0.050000
      8 C08         -3.7010    -0.1580    -0.4980 ca         1 F76      -0.084600
      9 C09         -2.5460    -0.0880    -1.4450 c          1 F76       0.605700
     10 O10         -2.6590     0.0030    -2.6370 o          1 F76      -0.469000
     11 O11         -1.3910    -0.1610    -0.8000 os         1 F76      -0.400100
     12 C12         -0.2070    -0.1170    -1.5760 c3         1 F76       0.067600
     13 C13          0.9630    -0.1560    -0.6090 c          1 F76       0.607100
     14 O14          0.8230    -0.2180     0.5910 o          1 F76      -0.524100
     15 N15          2.1540    -0.1130    -1.2620 ns         1 F76      -0.154000
     16 C16          3.4440    -0.1360    -0.7440 ca         1 F76       0.039000
     17 C17          3.7440    -0.2110     0.6200 ca         1 F76      -0.178500
     18 C18          5.0640    -0.2310     1.0320 ca         1 F76       0.023000
     19 C19          6.0910    -0.1750     0.1010 ca         1 F76      -0.309500
     20 S20          7.7640    -0.2300     0.6550 sy         1 F76       1.133600
     21 O21          7.8870    -1.1810     1.7500 o          1 F76      -0.545500
     22 O22          8.6140    -0.4150    -0.5140 o          1 F76      -0.545500
     23 N23          7.9260     1.2640     1.3420 n8         1 F76      -1.002100
     24 C24          5.8060    -0.1020    -1.2550 ca         1 F76       0.023000
     25 C25          4.4900    -0.0810    -1.6700 ca         1 F76      -0.178500
     26 C26         -4.3280     0.9940    -0.0870 ca         1 F76      -0.063300
     27 C27         -3.7940     2.3340    -0.5430 c3         1 F76      -0.030100
     28 C28         -3.9730     3.4940     0.4350 c3         1 F76      -0.071400
     29 C29         -5.3390     4.1620     0.3400 c3         1 F76      -0.075400
     30 C30         -6.4840     3.1550     0.2970 c3         1 F76      -0.072400
     31 C31         -6.2890     1.9990     1.2760 c3         1 F76      -0.131700
     32 C32         -5.4750     0.8380     0.7590 ca         1 F76       0.380300
     33 H1          -6.6460    -2.7100     1.8530 ha         1 F76       0.133000
     34 H2          -5.5540    -4.8240     1.1720 ha         1 F76       0.119000
     35 H3          -3.5670    -4.7740    -0.3060 ha         1 F76       0.117000
     36 H4          -2.6710    -2.6620    -1.1160 ha         1 F76       0.115000
     37 H5          -0.1540    -0.9700    -2.2600 h1         1 F76       0.068200
     38 H6          -0.1630     0.7950    -2.1780 h1         1 F76       0.068200
     39 H7           2.1060    -0.0620    -2.2700 hn         1 F76       0.155000
     40 H8           2.9660    -0.2550     1.3630 ha         1 F76       0.134500
     41 H9           5.2770    -0.2910     2.0910 ha         1 F76       0.139500
     42 H10          8.7480     1.3120     1.9370 hn         1 F76       0.471500
     43 H11          7.9480     2.0110     0.6560 hn         1 F76       0.471500
     44 H12          6.5960    -0.0620    -1.9920 ha         1 F76       0.139500
     45 H13          4.2720    -0.0250    -2.7290 ha         1 F76       0.134500
     46 H14         -2.7250     2.2330    -0.7380 hc         1 F76       0.053700
     47 H15         -4.2420     2.5940    -1.5080 hc         1 F76       0.053700
     48 H16         -3.7870     3.1420     1.4540 hc         1 F76       0.046200
     49 H17         -3.1970     4.2370     0.2360 hc         1 F76       0.046200
     50 H18         -5.4670     4.8250     1.1990 hc         1 F76       0.041700
     51 H19         -5.3780     4.7960    -0.5490 hc         1 F76       0.041700
     52 H20         -7.4220     3.6620     0.5280 hc         1 F76       0.046200
     53 H21         -6.6080     2.7570    -0.7150 hc         1 F76       0.046200
     54 H22         -5.8340     2.3700     2.2020 hc         1 F76       0.064700
     55 H23         -7.2540     1.5850     1.5680 hc         1 F76       0.064700
@<TRIPOS>BOND
     1     1     2 ar  
     2     1    32 ar  
     3     2     3 ar  
     4     2     7 ar  
     5     3     4 ar  
     6     3    33 1   
     7     4     5 ar  
     8     4    34 1   
     9     5     6 ar  
    10     5    35 1   
    11     6     7 ar  
    12     6    36 1   
    13     7     8 ar  
    14     8     9 1   
    15     8    26 ar  
    16     9    10 2   
    17     9    11 1   
    18    11    12 1   
    19    12    13 1   
    20    12    37 1   
    21    12    38 1   
    22    13    14 2   
    23    13    15 1   
    24    15    16 1   
    25    15    39 1   
    26    16    17 ar  
    27    16    25 ar  
    28    17    18 ar  
    29    17    40 1   
    30    18    19 ar  
    31    18    41 1   
    32    19    20 1   
    33    19    24 ar  
    34    20    21 2   
    35    20    22 2   
    36    20    23 1   
    37    23    42 1   
    38    23    43 1   
    39    24    25 ar  
    40    24    44 1   
    41    25    45 1   
    42    26    27 1   
    43    26    32 ar  
    44    27    28 1   
    45    27    46 1   
    46    27    47 1   
    47    28    29 1   
    48    28    48 1   
    49    28    49 1   
    50    29    30 1   
    51    29    50 1   
    52    29    51 1   
    53    30    31 1   
    54    30    52 1   
    55    30    53 1   
    56    31    32 1   
    57    31    54 1   
    58    31    55 1   
@<TRIPOS>SUBSTRUCTURE
     1 F76         1 TEMP              0 ****  ****    0 ROOT
