@<TRIPOS>MOLECULE
F77
   38    39     1     0     0
SMALL
No Charge or Current Charge


@<TRIPOS>ATOM
      1 C1           2.5130     0.3270    -2.2560 c3         1 F77      -0.084100
      2 C2           2.0120    -1.0230    -1.7060 c3         1 F77      -0.023100
      3 C3           1.9990    -1.0610    -0.1750 ca         1 F77      -0.108300
      4 C4           0.8410    -0.6000     0.4740 ca         1 F77      -0.124000
      5 C5           0.7560    -0.6060     1.8700 ca         1 F77      -0.112000
      6 C6           1.8160    -1.0950     2.6450 ca         1 F77       0.232000
      7 C7           2.9870    -1.5840     2.0180 ca         1 F77      -0.153600
      8 C8           3.0950    -1.5400     0.5960 ca         1 F77      -0.031300
      9 C9           4.3890    -1.9910    -0.0970 c3         1 F77      -0.035800
     10 C10          4.0800    -2.1850     2.8750 c          1 F77       0.709600
     11 O11          4.4820    -3.3070     2.6050 o          1 F77      -0.700000
     12 O12          4.4240    -1.5780     3.8800 o          1 F77      -0.700000
     13 N13          1.7120    -1.0820     4.0300 nu         1 F77      -0.856100
     14 S14          0.6380    -1.9670     4.9490 sy         1 F77       1.127600
     15 O15          1.2810    -1.9710     6.2630 o          1 F77      -0.568500
     16 O16         -0.6620    -1.3350     4.7090 o          1 F77      -0.568500
     17 C17          0.6870    -3.6100     4.2360 ca         1 F77      -0.316500
     18 C18          1.6330    -4.5510     4.6920 ca         1 F77       0.028500
     19 C19          1.6810    -5.8290     4.1100 ca         1 F77      -0.169000
     20 C20          0.7950    -6.1610     3.0760 ca         1 F77       0.230000
     21 C21         -0.1430    -5.2260     2.6150 ca         1 F77      -0.169000
     22 C22         -0.1990    -3.9470     3.1930 ca         1 F77       0.028500
     23 F23          0.8460    -7.3900     2.5170 f          1 F77      -0.189000
     24 H11          1.8650     1.1450    -1.9160 hc         1 F77       0.027700
     25 H12          2.5090     0.3190    -3.3520 hc         1 F77       0.027700
     26 H13          3.5340     0.5350    -1.9170 hc         1 F77       0.027700
     27 H21A         2.6170    -1.8360    -2.1240 hc         1 F77       0.033700
     28 H22A         0.9990    -1.1950    -2.0900 hc         1 F77       0.033700
     29 H4           0.0030    -0.2220    -0.1080 ha         1 F77       0.093000
     30 H5          -0.1390    -0.2230     2.3510 ha         1 F77       0.124000
     31 H91          5.2700    -1.8350     0.5350 hc         1 F77       0.039700
     32 H92          4.3430    -3.0550    -0.3570 hc         1 F77       0.039700
     33 H93          4.5900    -1.4310    -1.0150 hc         1 F77       0.039700
     34 HN13         2.6000    -1.2730     4.4890 hn         1 F77       0.553000
     35 H18          2.3310    -4.2980     5.4890 ha         1 F77       0.134000
     36 H19          2.4080    -6.5590     4.4560 ha         1 F77       0.122000
     37 H21         -0.8230    -5.4920     1.8110 ha         1 F77       0.122000
     38 H22         -0.9250    -3.2230     2.8240 ha         1 F77       0.134000
@<TRIPOS>BOND
     1     1     2 1   
     2     1    24 1   
     3     1    25 1   
     4     1    26 1   
     5     2     3 1   
     6     2    27 1   
     7     2    28 1   
     8     3     4 ar  
     9     3     8 ar  
    10     4     5 ar  
    11     4    29 1   
    12     5     6 ar  
    13     5    30 1   
    14     6     7 ar  
    15     6    13 1   
    16     7     8 ar  
    17     7    10 1   
    18     8     9 1   
    19     9    31 1   
    20     9    32 1   
    21     9    33 1   
    22    10    11 1   
    23    10    12 1   
    24    13    14 1   
    25    13    34 1   
    26    14    15 2   
    27    14    16 2   
    28    14    17 1   
    29    17    18 ar  
    30    17    22 ar  
    31    18    19 ar  
    32    18    35 1   
    33    19    20 ar  
    34    19    36 1   
    35    20    21 ar  
    36    20    23 1   
    37    21    22 ar  
    38    21    37 1   
    39    22    38 1   
@<TRIPOS>SUBSTRUCTURE
     1 F77         1 TEMP              0 ****  ****    0 ROOT
