@<TRIPOS>MOLECULE
F77
   38    39     1     0     0
SMALL
bcc


@<TRIPOS>ATOM
      1 C1           2.7850     0.3770    -2.1090 c3         1 F77      -0.084100
      2 C2           1.8720    -0.7620    -1.6550 c3         1 F77      -0.023100
      3 C3           1.8350    -0.9080    -0.1540 ca         1 F77      -0.108300
      4 C4           0.8550    -0.2080     0.5430 ca         1 F77      -0.142000
      5 C5           0.7900    -0.2430     1.9230 ca         1 F77      -0.130000
      6 C6           1.7010    -1.0170     2.6230 ca         1 F77       0.093600
      7 C7           2.6790    -1.7690     1.9530 ca         1 F77      -0.153600
      8 C8           2.7680    -1.6830     0.5530 ca         1 F77      -0.031300
      9 C9           3.8470    -2.4080    -0.2100 c3         1 F77      -0.035800
     10 C10          3.6150    -2.6550     2.7740 c          1 F77       0.920200
     11 O11          3.9370    -3.7510     2.3090 o          1 F77      -0.805300
     12 O12          3.9770    -2.1890     3.8900 o          1 F77      -0.805300
     13 N13          1.6480    -1.0280     4.0450 nu         1 F77      -0.662500
     14 S14          0.4700    -1.9530     4.7530 sy         1 F77       1.269200
     15 O15          0.7220    -1.8870     6.1840 o          1 F77      -0.639300
     16 O16         -0.8210    -1.5300     4.2350 o          1 F77      -0.639300
     17 C17          0.7740    -3.6020     4.1970 ca         1 F77      -0.316500
     18 C18          1.6180    -4.4220     4.9350 ca         1 F77       0.010500
     19 C19          1.9530    -5.6710     4.4450 ca         1 F77      -0.187000
     20 C20          1.4500    -6.0580     3.2180 ca         1 F77       0.194900
     21 C21          0.6070    -5.2580     2.4720 ca         1 F77      -0.187000
     22 C22          0.2700    -4.0100     2.9680 ca         1 F77       0.010500
     23 F23          1.7860    -7.2610     2.7390 f          1 F77      -0.153900
     24 H11          2.4550     1.3280    -1.6910 hc         1 F77       0.027700
     25 H12          2.7830     0.4680    -3.1960 hc         1 F77       0.027700
     26 H13          3.8170     0.2190    -1.7900 hc         1 F77       0.027700
     27 H21A         2.1750    -1.6940    -2.1330 hc         1 F77       0.033700
     28 H22A         0.8600    -0.5610    -2.0110 hc         1 F77       0.033700
     29 H4           0.1380     0.3900    -0.0070 ha         1 F77       0.111000
     30 H5           0.0470     0.3360     2.4540 ha         1 F77       0.142000
     31 H91          4.7630    -2.5040     0.3640 hc         1 F77       0.039700
     32 H92          3.5310    -3.4170    -0.4780 hc         1 F77       0.039700
     33 H93          4.0970    -1.8900    -1.1330 hc         1 F77       0.039700
     34 HN13         2.5880    -1.3360     4.3770 hn         1 F77       0.497800
     35 H18          2.0110    -4.1030     5.8900 ha         1 F77       0.152000
     36 H19          2.6050    -6.3280     5.0050 ha         1 F77       0.140000
     37 H21          0.2250    -5.5960     1.5180 ha         1 F77       0.140000
     38 H22         -0.3860    -3.3700     2.3940 ha         1 F77       0.152000
@<TRIPOS>BOND
     1     1     2 1   
     2     1    24 1   
     3     1    25 1   
     4     1    26 1   
     5     2     3 1   
     6     2    27 1   
     7     2    28 1   
     8     3     4 ar  
     9     3     8 ar  
    10     4     5 ar  
    11     4    29 1   
    12     5     6 ar  
    13     5    30 1   
    14     6     7 ar  
    15     6    13 1   
    16     7     8 ar  
    17     7    10 1   
    18     8     9 1   
    19     9    31 1   
    20     9    32 1   
    21     9    33 1   
    22    10    11 1   
    23    10    12 1   
    24    13    14 1   
    25    13    34 1   
    26    14    15 2   
    27    14    16 2   
    28    14    17 1   
    29    17    18 ar  
    30    17    22 ar  
    31    18    19 ar  
    32    18    35 1   
    33    19    20 ar  
    34    19    36 1   
    35    20    21 ar  
    36    20    23 1   
    37    21    22 ar  
    38    21    37 1   
    39    22    38 1   
@<TRIPOS>SUBSTRUCTURE
     1 F77         1 TEMP              0 ****  ****    0 ROOT
