@<TRIPOS>MOLECULE
F78
   78    81     1     0     0
SMALL
abcg2


@<TRIPOS>ATOM
      1 C21          3.8130    -0.9440    -0.7910 c          1 F78       0.618700
      2 O22          3.8140    -1.3720    -1.9360 o          1 F78      -0.591100
      3 C22          5.0790    -0.4740    -0.1420 ca         1 F78      -0.109600
      4 C27          6.0860     0.0070    -0.9710 ca         1 F78      -0.094000
      5 C26          7.2880     0.4480    -0.4280 ca         1 F78       0.133100
      6 C25          7.4890     0.3880     0.9490 ca         1 F78      -0.190000
      7 C24          6.4880    -0.1130     1.7670 ca         1 F78      -0.078000
      8 C23          5.2820    -0.5420     1.2350 ca         1 F78      -0.128000
      9 O27          8.2200     0.9180    -1.2790 oh         1 F78      -0.529100
     10 N11         -2.0050     0.4280    -0.6720 n3         1 F78      -0.791500
     11 C12         -2.9640     0.3770     0.4250 c3         1 F78       0.234800
     12 C13         -4.1630    -0.5110     0.1280 c3         1 F78      -0.100400
     13 C14         -5.0930    -0.6190     1.3360 c3         1 F78      -0.027100
     14 C16         -1.0030    -0.6200    -0.7900 c3         1 F78       0.210800
     15 C17          0.3720    -0.2180    -0.2620 c3         1 F78       0.126300
     16 O18          0.3240     0.2670     1.0590 oh         1 F78      -0.655000
     17 C19          1.4080    -1.3390    -0.4330 c3         1 F78       0.083700
     18 N20          2.7040    -0.8360    -0.0400 ns         1 F78      -0.499900
     19 C32          1.0700    -2.6220     0.3460 c3         1 F78      -0.048100
     20 C33          3.1510    -3.7600     1.1840 ca         1 F78      -0.099500
     21 C34          4.1860    -4.6740     1.0420 ca         1 F78      -0.104500
     22 C35          4.2370    -5.4990    -0.0730 ca         1 F78      -0.104000
     23 C36          3.2450    -5.4050    -1.0420 ca         1 F78      -0.104500
     24 C37          2.2160    -4.4860    -0.8960 ca         1 F78      -0.099500
     25 C38          2.1550    -3.6520     0.2170 ca         1 F78      -0.083300
     26 C40         -6.2910    -1.4790     1.0450 ca         1 F78      -0.081300
     27 C41         -6.2100    -2.8670     1.1500 ca         1 F78      -0.105000
     28 C42         -7.2990    -3.6710     0.8400 ca         1 F78      -0.108000
     29 C43         -8.4920    -3.0960     0.4180 ca         1 F78      -0.109000
     30 C44         -8.5850    -1.7150     0.3100 ca         1 F78      -0.108000
     31 C45         -7.4920    -0.9160     0.6210 ca         1 F78      -0.105000
     32 S8          -2.0680     1.6860    -1.7150 sy         1 F78       1.200600
     33 O9          -3.4580     1.9220    -2.0780 o          1 F78      -0.545000
     34 O10         -1.0920     1.4120    -2.7610 o          1 F78      -0.545000
     35 C5          -1.5370     3.1100    -0.8130 ca         1 F78      -0.332500
     36 C4          -0.1770     3.3900    -0.6970 ca         1 F78       0.029000
     37 C6          -2.4700     3.9390    -0.2110 ca         1 F78       0.029000
     38 C3           0.2390     4.4840     0.0290 ca         1 F78      -0.197500
     39 C7          -2.0570     5.0380     0.5270 ca         1 F78      -0.197500
     40 C2          -0.6970     5.3150     0.6560 ca         1 F78       0.196100
     41 O1          -0.2000     6.3480     1.3450 os         1 F78      -0.335100
     42 C1          -1.0960     7.2260     2.0030 c3         1 F78       0.145900
     43 H27          5.9370     0.0480    -2.0420 ha         1 F78       0.152000
     44 H25          8.4240     0.7260     1.3820 ha         1 F78       0.114000
     45 H24          6.6560    -0.1720     2.8340 ha         1 F78       0.114000
     46 H23          4.5300    -0.9550     1.8940 ha         1 F78       0.113000
     47 HO27         9.0050     1.2030    -0.7980 ho         1 F78       0.465000
     48 H12         -2.4390     0.0160     1.3110 h1         1 F78       0.045700
     49 H12A        -3.2960     1.3860     0.6790 h1         1 F78       0.045700
     50 H13         -4.7090    -0.1110    -0.7290 hc         1 F78       0.060700
     51 H13A        -3.8170    -1.5100    -0.1550 hc         1 F78       0.060700
     52 H14         -4.5370    -1.0330     2.1820 hc         1 F78       0.044200
     53 H14A        -5.4200     0.3800     1.6350 hc         1 F78       0.044200
     54 H16         -1.4000    -1.4710    -0.2310 h1         1 F78       0.065200
     55 H16A        -0.9140    -0.9610    -1.8210 h1         1 F78       0.065200
     56 H17          0.7370     0.6190    -0.8630 h1         1 F78       0.094700
     57 HO18        -0.0200    -0.4180     1.6410 ho         1 F78       0.438000
     58 H19          1.4630    -1.5810    -1.4960 h1         1 F78       0.099700
     59 HN20         2.7660    -0.4040     0.8690 hn         1 F78       0.322500
     60 H32          0.9200    -2.3890     1.4050 hc         1 F78       0.045200
     61 H32A         0.1270    -3.0310    -0.0220 hc         1 F78       0.045200
     62 H33          3.1180    -3.1230     2.0600 ha         1 F78       0.106000
     63 H34          4.9530    -4.7410     1.8030 ha         1 F78       0.113000
     64 H35          5.0420    -6.2140    -0.1860 ha         1 F78       0.113000
     65 H36          3.2740    -6.0480    -1.9120 ha         1 F78       0.113000
     66 H37          1.4470    -4.4170    -1.6570 ha         1 F78       0.106000
     67 H41         -5.2850    -3.3240     1.4820 ha         1 F78       0.110000
     68 H42         -7.2170    -4.7460     0.9310 ha         1 F78       0.112000
     69 H43         -9.3420    -3.7210     0.1770 ha         1 F78       0.112000
     70 H44         -9.5100    -1.2580    -0.0160 ha         1 F78       0.112000
     71 H45         -7.5760     0.1620     0.5360 ha         1 F78       0.110000
     72 H4           0.5650     2.7750    -1.1860 ha         1 F78       0.133500
     73 H6          -3.5300     3.7490    -0.3140 ha         1 F78       0.133500
     74 H3           1.2940     4.7100     0.1140 ha         1 F78       0.127000
     75 H7          -2.8090     5.6660     0.9850 ha         1 F78       0.127000
     76 H1          -0.4840     7.9750     2.4980 h1         1 F78       0.045700
     77 H1A         -1.7660     7.7240     1.2980 h1         1 F78       0.045700
     78 H1B         -1.6940     6.7050     2.7550 h1         1 F78       0.045700
@<TRIPOS>BOND
     1     1     2 2   
     2     1     3 1   
     3     1    18 1   
     4     3     4 ar  
     5     3     8 ar  
     6     4     5 ar  
     7     4    43 1   
     8     5     6 ar  
     9     5     9 1   
    10     6     7 ar  
    11     6    44 1   
    12     7     8 ar  
    13     7    45 1   
    14     8    46 1   
    15     9    47 1   
    16    10    11 1   
    17    10    14 1   
    18    10    32 1   
    19    11    12 1   
    20    11    48 1   
    21    11    49 1   
    22    12    13 1   
    23    12    50 1   
    24    12    51 1   
    25    13    26 1   
    26    13    52 1   
    27    13    53 1   
    28    14    15 1   
    29    14    54 1   
    30    14    55 1   
    31    15    16 1   
    32    15    17 1   
    33    15    56 1   
    34    16    57 1   
    35    17    18 1   
    36    17    19 1   
    37    17    58 1   
    38    18    59 1   
    39    19    25 1   
    40    19    60 1   
    41    19    61 1   
    42    20    21 ar  
    43    20    25 ar  
    44    20    62 1   
    45    21    22 ar  
    46    21    63 1   
    47    22    23 ar  
    48    22    64 1   
    49    23    24 ar  
    50    23    65 1   
    51    24    25 ar  
    52    24    66 1   
    53    26    27 ar  
    54    26    31 ar  
    55    27    28 ar  
    56    27    67 1   
    57    28    29 ar  
    58    28    68 1   
    59    29    30 ar  
    60    29    69 1   
    61    30    31 ar  
    62    30    70 1   
    63    31    71 1   
    64    32    33 2   
    65    32    34 2   
    66    32    35 1   
    67    35    36 ar  
    68    35    37 ar  
    69    36    38 ar  
    70    36    72 1   
    71    37    39 ar  
    72    37    73 1   
    73    38    40 ar  
    74    38    74 1   
    75    39    40 ar  
    76    39    75 1   
    77    40    41 1   
    78    41    42 1   
    79    42    76 1   
    80    42    77 1   
    81    42    78 1   
@<TRIPOS>SUBSTRUCTURE
     1 F78         1 TEMP              0 ****  ****    0 ROOT
