@<TRIPOS>MOLECULE
F78
   78    81     1     0     0
SMALL
No Charge or Current Charge


@<TRIPOS>ATOM
      1 C21          4.1430    -1.8580    -1.2720 c          1 F78       0.618700
      2 O22          3.5520    -2.4740    -2.1500 o          1 F78      -0.591100
      3 C22          5.6390    -1.6140    -1.3240 ca         1 F78      -0.109600
      4 C27          6.3850    -2.1040    -2.4220 ca         1 F78      -0.094000
      5 C26          7.7710    -1.9000    -2.5010 ca         1 F78       0.133100
      6 C25          8.4400    -1.2050    -1.4840 ca         1 F78      -0.190000
      7 C24          7.7190    -0.7130    -0.3850 ca         1 F78      -0.078000
      8 C23          6.3300    -0.9140    -0.3020 ca         1 F78      -0.128000
      9 O27          8.4670    -2.3810    -3.5700 oh         1 F78      -0.529100
     10 N11         -0.7980     1.0690     0.9910 n3         1 F78      -0.791500
     11 C12         -2.0940     0.8960     1.6930 c3         1 F78       0.234800
     12 C13         -3.2310     0.2740     0.8480 c3         1 F78      -0.100400
     13 C14         -4.5890     0.2820     1.5790 c3         1 F78      -0.027100
     14 C16         -0.1710    -0.2240     0.5900 c3         1 F78       0.210800
     15 C17          1.3710    -0.1600     0.3880 c3         1 F78       0.126300
     16 O18          1.9600     0.4970     1.5280 oh         1 F78      -0.655000
     17 C19          2.0500    -1.5390     0.1240 c3         1 F78       0.083700
     18 N20          3.4760    -1.3420    -0.1810 ns         1 F78      -0.499900
     19 C32          1.8880    -2.5820     1.2660 c3         1 F78      -0.048100
     20 C33          3.8910    -4.1200     1.6110 ca         1 F78      -0.099500
     21 C34          4.5930    -5.3090     1.3490 ca         1 F78      -0.104500
     22 C35          4.0510    -6.2680     0.4760 ca         1 F78      -0.104000
     23 C36          2.8080    -6.0360    -0.1350 ca         1 F78      -0.104500
     24 C37          2.1070    -4.8450     0.1250 ca         1 F78      -0.099500
     25 C38          2.6440    -3.8810     0.9990 ca         1 F78      -0.083300
     26 C40         -5.7120    -0.2460     0.6970 ca         1 F78      -0.081300
     27 C41         -6.0580    -1.6110     0.7240 ca         1 F78      -0.105000
     28 C42         -7.0910    -2.0960    -0.0960 ca         1 F78      -0.108000
     29 C43         -7.7820    -1.2200    -0.9510 ca         1 F78      -0.109000
     30 C44         -7.4390     0.1420    -0.9840 ca         1 F78      -0.108000
     31 C45         -6.4060     0.6280    -0.1630 ca         1 F78      -0.105000
     32 S8          -0.7170     2.3070    -0.1920 sy         1 F78       1.200600
     33 O9          -1.1390     1.7130    -1.4650 o          1 F78      -0.545000
     34 O10          0.5960     2.9330    -0.0150 o          1 F78      -0.545000
     35 C5          -1.9570     3.5010     0.3380 ca         1 F78      -0.332500
     36 C4          -1.6900     4.3350     1.4400 ca         1 F78       0.029000
     37 C6          -3.1880     3.6050    -0.3410 ca         1 F78       0.029000
     38 C3          -2.6600     5.2560     1.8690 ca         1 F78      -0.197500
     39 C7          -4.1540     4.5260     0.0950 ca         1 F78      -0.197500
     40 C2          -3.8920     5.3550     1.2070 ca         1 F78       0.196100
     41 O1          -4.8050     6.2750     1.6800 os         1 F78      -0.335100
     42 C1          -6.1010     6.4490     1.0790 c3         1 F78       0.145900
     43 H27          5.8880    -2.6470    -3.2230 ha         1 F78       0.152000
     44 H25          9.5140    -1.0430    -1.5370 ha         1 F78       0.114000
     45 H24          8.2360    -0.1740     0.4060 ha         1 F78       0.114000
     46 H23          5.8070    -0.5200     0.5660 ha         1 F78       0.113000
     47 HO27         9.4130    -2.1470    -3.4560 ho         1 F78       0.465000
     48 H12         -1.9390     0.2420     2.5610 h1         1 F78       0.045700
     49 H12A        -2.4400     1.8470     2.1150 h1         1 F78       0.045700
     50 H13         -3.3400     0.8170    -0.0950 hc         1 F78       0.060700
     51 H13A        -2.9710    -0.7590     0.5880 hc         1 F78       0.060700
     52 H14         -4.5110    -0.3150     2.4960 hc         1 F78       0.044200
     53 H14A        -4.8200     1.3060     1.8980 hc         1 F78       0.044200
     54 H16         -0.3700    -0.9660     1.3740 h1         1 F78       0.065200
     55 H16A        -0.6340    -0.6120    -0.3280 h1         1 F78       0.065200
     56 H17          1.5500     0.4470    -0.5100 h1         1 F78       0.094700
     57 HO18         1.2900     1.1710     1.7890 ho         1 F78       0.438000
     58 H19          1.5660    -1.9640    -0.7670 h1         1 F78       0.099700
     59 HN20         4.0260    -0.8170     0.4850 hn         1 F78       0.322500
     60 H32          2.2300    -2.1410     2.2110 hc         1 F78       0.045200
     61 H32A         0.8260    -2.8120     1.4060 hc         1 F78       0.045200
     62 H33          4.3210    -3.3810     2.2840 ha         1 F78       0.106000
     63 H34          5.5560    -5.4870     1.8220 ha         1 F78       0.113000
     64 H35          4.5950    -7.1880     0.2730 ha         1 F78       0.113000
     65 H36          2.3890    -6.7760    -0.8130 ha         1 F78       0.113000
     66 H37          1.1470    -4.6710    -0.3570 ha         1 F78       0.106000
     67 H41         -5.5270    -2.2960     1.3810 ha         1 F78       0.110000
     68 H42         -7.3550    -3.1510    -0.0710 ha         1 F78       0.112000
     69 H43         -8.5810    -1.5960    -1.5860 ha         1 F78       0.112000
     70 H44         -7.9710     0.8210    -1.6460 ha         1 F78       0.112000
     71 H45         -6.1440     1.6830    -0.1970 ha         1 F78       0.110000
     72 H4          -0.7410     4.2650     1.9710 ha         1 F78       0.133500
     73 H6          -3.4050     2.9750    -1.2020 ha         1 F78       0.133500
     74 H3          -2.4560     5.8950     2.7240 ha         1 F78       0.127000
     75 H7          -5.0960     4.5820    -0.4410 ha         1 F78       0.127000
     76 H1          -6.6650     7.2260     1.6110 h1         1 F78       0.045700
     77 H1A         -6.0060     6.7570     0.0300 h1         1 F78       0.045700
     78 H1B         -6.6800     5.5180     1.1240 h1         1 F78       0.045700
@<TRIPOS>BOND
     1     1     2 2   
     2     1     3 1   
     3     1    18 1   
     4     3     4 ar  
     5     3     8 ar  
     6     4     5 ar  
     7     4    43 1   
     8     5     6 ar  
     9     5     9 1   
    10     6     7 ar  
    11     6    44 1   
    12     7     8 ar  
    13     7    45 1   
    14     8    46 1   
    15     9    47 1   
    16    10    11 1   
    17    10    14 1   
    18    10    32 1   
    19    11    12 1   
    20    11    48 1   
    21    11    49 1   
    22    12    13 1   
    23    12    50 1   
    24    12    51 1   
    25    13    26 1   
    26    13    52 1   
    27    13    53 1   
    28    14    15 1   
    29    14    54 1   
    30    14    55 1   
    31    15    16 1   
    32    15    17 1   
    33    15    56 1   
    34    16    57 1   
    35    17    18 1   
    36    17    19 1   
    37    17    58 1   
    38    18    59 1   
    39    19    25 1   
    40    19    60 1   
    41    19    61 1   
    42    20    21 ar  
    43    20    25 ar  
    44    20    62 1   
    45    21    22 ar  
    46    21    63 1   
    47    22    23 ar  
    48    22    64 1   
    49    23    24 ar  
    50    23    65 1   
    51    24    25 ar  
    52    24    66 1   
    53    26    27 ar  
    54    26    31 ar  
    55    27    28 ar  
    56    27    67 1   
    57    28    29 ar  
    58    28    68 1   
    59    29    30 ar  
    60    29    69 1   
    61    30    31 ar  
    62    30    70 1   
    63    31    71 1   
    64    32    33 2   
    65    32    34 2   
    66    32    35 1   
    67    35    36 ar  
    68    35    37 ar  
    69    36    38 ar  
    70    36    72 1   
    71    37    39 ar  
    72    37    73 1   
    73    38    40 ar  
    74    38    74 1   
    75    39    40 ar  
    76    39    75 1   
    77    40    41 1   
    78    41    42 1   
    79    42    76 1   
    80    42    77 1   
    81    42    78 1   
@<TRIPOS>SUBSTRUCTURE
     1 F78         1 TEMP              0 ****  ****    0 ROOT
