@<TRIPOS>MOLECULE
F79
   44    45     1     0     0
SMALL
abcg2


@<TRIPOS>ATOM
      1 C1           2.8670    -1.6240     0.4920 ca         1 F79       0.242000
      2 C2           2.8650    -1.5630     1.8990 ca         1 F79      -0.176600
      3 C3           1.7700    -0.9390     2.5120 ca         1 F79       0.137100
      4 C4           0.6970    -0.4270     1.7720 ca         1 F79      -0.126300
      5 C5           0.7430    -0.5230     0.3880 ca         1 F79      -0.112000
      6 C6           1.8210    -1.1060    -0.2550 ca         1 F79      -0.125000
      7 C7          -0.5180     0.1480     2.4490 c3         1 F79      -0.013100
      8 C8          -1.4680    -0.9340     2.9610 c3         1 F79      -0.083100
      9 O9           1.6950    -0.8260     3.8650 os         1 F79      -0.347100
     10 C10          2.3180     0.3400     4.3920 c3         1 F79       0.142600
     11 C11          2.3140     0.2490     5.9070 c3         1 F79       0.140800
     12 N12          2.9150     1.3990     6.5620 n8         1 F79      -1.002200
     13 C13          3.9890    -2.2280     2.7020 c          1 F79       0.719600
     14 O14          4.2020    -1.8730     3.8610 o          1 F79      -0.687500
     15 O15          4.6230    -3.1390     2.0960 o          1 F79      -0.687500
     16 N16          3.9720    -2.2100    -0.1840 nu         1 F79      -0.863100
     17 S17          5.0460    -1.1510    -0.8690 sy         1 F79       1.121600
     18 C18          5.4340    -0.0090     0.4250 ca         1 F79      -0.312500
     19 O19          6.2310    -1.9340    -1.1850 o          1 F79      -0.564500
     20 O20          4.3750    -0.4190    -1.9310 o          1 F79      -0.564500
     21 C21          6.4310    -0.3360     1.3350 ca         1 F79       0.024500
     22 C22          6.6350     0.4690     2.4420 ca         1 F79      -0.174500
     23 C23          5.8220     1.5740     2.6170 ca         1 F79       0.211000
     24 C24          4.8310     1.9190     1.7170 ca         1 F79      -0.174500
     25 C25          4.6350     1.1130     0.6090 ca         1 F79       0.024500
     26 F26          5.9990     2.3350     3.7020 f          1 F79      -0.190000
     27 H5          -0.0810    -0.1350    -0.1980 ha         1 F79       0.098000
     28 H6           1.8420    -1.1780    -1.3330 ha         1 F79       0.129000
     29 H71         -0.2360     0.8010     3.2760 hc         1 F79       0.032700
     30 H72         -1.0500     0.7810     1.7340 hc         1 F79       0.032700
     31 H81         -1.8270    -1.5580     2.1420 hc         1 F79       0.031700
     32 H82         -2.3370    -0.4870     3.4460 hc         1 F79       0.031700
     33 H83         -0.9770    -1.5810     3.6870 hc         1 F79       0.031700
     34 H101         3.3450     0.4230     4.0280 h1         1 F79       0.024700
     35 H102         1.7720     1.2380     4.0720 h1         1 F79       0.024700
     36 H111         1.2880     0.1390     6.2660 h1         1 F79       0.066700
     37 H112         2.8540    -0.6510     6.2100 h1         1 F79       0.066700
     38 H121         2.4380     2.2460     6.2790 hn         1 F79       0.387000
     39 H122         3.8750     1.5050     6.2590 hn         1 F79       0.387000
     40 HN16         4.4570    -2.8090     0.5340 hn         1 F79       0.564000
     41 H21          7.0530    -1.2090     1.1960 ha         1 F79       0.140000
     42 H22          7.4040     0.2330     3.1650 ha         1 F79       0.126000
     43 H24          4.2150     2.7920     1.8810 ha         1 F79       0.126000
     44 H25          3.8560     1.3630    -0.0980 ha         1 F79       0.140000
@<TRIPOS>BOND
     1     1     2 ar  
     2     1     6 ar  
     3     1    16 1   
     4     2     3 ar  
     5     2    13 1   
     6     3     4 ar  
     7     3     9 1   
     8     4     5 ar  
     9     4     7 1   
    10     5     6 ar  
    11     5    27 1   
    12     6    28 1   
    13     7     8 1   
    14     7    29 1   
    15     7    30 1   
    16     8    31 1   
    17     8    32 1   
    18     8    33 1   
    19     9    10 1   
    20    10    11 1   
    21    10    34 1   
    22    10    35 1   
    23    11    12 1   
    24    11    36 1   
    25    11    37 1   
    26    12    38 1   
    27    12    39 1   
    28    13    14 1   
    29    13    15 1   
    30    16    17 1   
    31    16    40 1   
    32    17    18 1   
    33    17    19 2   
    34    17    20 2   
    35    18    21 ar  
    36    18    25 ar  
    37    21    22 ar  
    38    21    41 1   
    39    22    23 ar  
    40    22    42 1   
    41    23    24 ar  
    42    23    26 1   
    43    24    25 ar  
    44    24    43 1   
    45    25    44 1   
@<TRIPOS>SUBSTRUCTURE
     1 F79         1 TEMP              0 ****  ****    0 ROOT
