@<TRIPOS>MOLECULE
F79
   44    45     1     0     0
SMALL
No Charge or Current Charge


@<TRIPOS>ATOM
      1 C1           2.9050    -1.5530     0.6060 ca         1 F79       0.242000
      2 C2           2.8310    -1.5720     2.0160 ca         1 F79      -0.176600
      3 C3           1.7310    -0.9480     2.6560 ca         1 F79       0.137100
      4 C4           0.7010    -0.3420     1.8920 ca         1 F79      -0.126300
      5 C5           0.8080    -0.3210     0.4900 ca         1 F79      -0.112000
      6 C6           1.9040    -0.9170    -0.1440 ca         1 F79      -0.125000
      7 C7          -0.5580     0.2460     2.5340 c3         1 F79      -0.013100
      8 C8          -1.5530    -0.8420     2.9800 c3         1 F79      -0.083100
      9 O9           1.6200    -0.9930     4.0270 os         1 F79      -0.347100
     10 C10          2.0540     0.1330     4.8140 c3         1 F79       0.142600
     11 C11          1.7990    -0.2040     6.3060 c3         1 F79       0.140800
     12 N12          2.1920     0.8930     7.2350 n8         1 F79      -1.002200
     13 C13          3.9130    -2.2540     2.8130 c          1 F79       0.719600
     14 O14          4.4680    -1.6370     3.7090 o          1 F79      -0.687500
     15 O15          4.2980    -3.3500     2.4260 o          1 F79      -0.687500
     16 N16          3.9530    -2.1780    -0.0540 nu         1 F79      -0.863100
     17 S17          5.1630    -1.4160    -0.9100 sy         1 F79       1.121600
     18 C18          5.6590    -0.0510     0.1400 ca         1 F79      -0.312500
     19 O19          6.2130    -2.4340    -0.9410 o          1 F79      -0.564500
     20 O20          4.5020    -0.9260    -2.1220 o          1 F79      -0.564500
     21 C21          6.6730    -0.2300     1.1030 ca         1 F79       0.024500
     22 C22          7.0340     0.8380     1.9420 ca         1 F79      -0.174500
     23 C23          6.3820     2.0730     1.8230 ca         1 F79       0.211000
     24 C24          5.3680     2.2530     0.8700 ca         1 F79      -0.174500
     25 C25          5.0020     1.1910     0.0270 ca         1 F79       0.024500
     26 F26          6.7300     3.0970     2.6330 f          1 F79      -0.190000
     27 H5           0.0280     0.1380    -0.1140 ha         1 F79       0.098000
     28 H6           1.9610    -0.9120    -1.2290 ha         1 F79       0.129000
     29 H71         -0.3110     0.8760     3.3930 hc         1 F79       0.032700
     30 H72         -1.0700     0.9100     1.8260 hc         1 F79       0.032700
     31 H81         -1.8570    -1.4600     2.1270 hc         1 F79       0.031700
     32 H82         -2.4520    -0.3850     3.4110 hc         1 F79       0.031700
     33 H83         -1.1040    -1.4950     3.7380 hc         1 F79       0.031700
     34 H101         3.1210     0.3320     4.6580 h1         1 F79       0.024700
     35 H102         1.5020     1.0400     4.5440 h1         1 F79       0.024700
     36 H111         0.7300    -0.4200     6.4430 h1         1 F79       0.066700
     37 H112         2.3640    -1.1110     6.5670 h1         1 F79       0.066700
     38 H121         1.6980     1.7550     6.9700 hn         1 F79       0.387000
     39 H122         3.1820     1.1240     7.0840 hn         1 F79       0.387000
     40 HN16         4.4820    -2.7950     0.5590 hn         1 F79       0.564000
     41 H21          7.1790    -1.1890     1.2090 ha         1 F79       0.140000
     42 H22          7.8150     0.7070     2.6860 ha         1 F79       0.126000
     43 H24          4.8660     3.2130     0.7890 ha         1 F79       0.126000
     44 H25          4.2080     1.3360    -0.7050 ha         1 F79       0.140000
@<TRIPOS>BOND
     1     1     2 ar  
     2     1     6 ar  
     3     1    16 1   
     4     2     3 ar  
     5     2    13 1   
     6     3     4 ar  
     7     3     9 1   
     8     4     5 ar  
     9     4     7 1   
    10     5     6 ar  
    11     5    27 1   
    12     6    28 1   
    13     7     8 1   
    14     7    29 1   
    15     7    30 1   
    16     8    31 1   
    17     8    32 1   
    18     8    33 1   
    19     9    10 1   
    20    10    11 1   
    21    10    34 1   
    22    10    35 1   
    23    11    12 1   
    24    11    36 1   
    25    11    37 1   
    26    12    38 1   
    27    12    39 1   
    28    13    14 1   
    29    13    15 1   
    30    16    17 1   
    31    16    40 1   
    32    17    18 1   
    33    17    19 2   
    34    17    20 2   
    35    18    21 ar  
    36    18    25 ar  
    37    21    22 ar  
    38    21    41 1   
    39    22    23 ar  
    40    22    42 1   
    41    23    24 ar  
    42    23    26 1   
    43    24    25 ar  
    44    24    43 1   
    45    25    44 1   
@<TRIPOS>SUBSTRUCTURE
     1 F79         1 TEMP              0 ****  ****    0 ROOT
