@<TRIPOS>MOLECULE
F7A
   40    42     1     0     0
SMALL
abcg2


@<TRIPOS>ATOM
      1 C1           3.8410     1.5460     0.8070 c3         1 F7A       0.358300
      2 F1           4.7960     1.9780     1.6370 f          1 F7A      -0.107000
      3 N1           1.0680    -1.1890     0.1230 ns         1 F7A      -0.137000
      4 O1           1.4070     0.7610    -1.0140 o          1 F7A      -0.546100
      5 C2           4.2490     0.2930     0.0880 ca         1 F7A      -0.153300
      6 F2           2.7420     1.3610     1.5520 f          1 F7A      -0.107000
      7 O2          -3.3320     0.5270    -0.6210 os         1 F7A      -0.251200
      8 C3           3.2960    -0.5670    -0.4660 ca         1 F7A      -0.106600
      9 F3           3.5830     2.5530    -0.0350 f          1 F7A      -0.107000
     10 C4           3.7160    -1.7280    -1.1030 ca         1 F7A      -0.098000
     11 C5           5.0660    -2.0290    -1.2100 ca         1 F7A      -0.085000
     12 C6           6.0070    -1.1720    -0.6660 ca         1 F7A      -0.100000
     13 C7           5.5980    -0.0180    -0.0130 ca         1 F7A      -0.067000
     14 C8           1.8290    -0.2440    -0.4770 c          1 F7A       0.615700
     15 C9          -0.3230    -1.2550     0.2520 ca         1 F7A       0.010000
     16 C10         -1.1930    -0.2960    -0.2550 ca         1 F7A      -0.165000
     17 C11         -2.5650    -0.4550    -0.0750 ca         1 F7A       0.165100
     18 C12         -3.0850    -1.5490     0.6020 ca         1 F7A      -0.209000
     19 C13         -2.1980    -2.4940     1.1030 ca         1 F7A      -0.050000
     20 C14         -0.8340    -2.3620     0.9380 ca         1 F7A      -0.200000
     21 C15         -4.6830     0.5430    -0.3720 ca         1 F7A       0.096100
     22 C16         -5.1600     1.1030     0.8040 ca         1 F7A      -0.116000
     23 C17         -6.5300     1.1580     1.0200 ca         1 F7A      -0.102500
     24 C18         -7.4120     0.6550     0.0720 ca         1 F7A      -0.111000
     25 C19         -6.9200     0.0980    -1.1010 ca         1 F7A      -0.102500
     26 C20         -5.5510     0.0360    -1.3270 ca         1 F7A      -0.116000
     27 HN1          1.5690    -1.9480     0.5610 hn         1 F7A       0.156000
     28 H4           2.9840    -2.3980    -1.5370 ha         1 F7A       0.127000
     29 H5           5.3770    -2.9330    -1.7170 ha         1 F7A       0.124000
     30 H6           7.0610    -1.3990    -0.7410 ha         1 F7A       0.125000
     31 H7           6.3470     0.6310     0.4190 ha         1 F7A       0.136000
     32 H10         -0.8320     0.5730    -0.7810 ha         1 F7A       0.164000
     33 H12         -4.1490    -1.6810     0.7410 ha         1 F7A       0.129000
     34 H13         -2.5870    -3.3540     1.6310 ha         1 F7A       0.113000
     35 H14         -0.1630    -3.1130     1.3370 ha         1 F7A       0.111000
     36 H16         -4.4710     1.4990     1.5390 ha         1 F7A       0.129500
     37 H17         -6.9080     1.5970     1.9340 ha         1 F7A       0.116000
     38 H18         -8.4790     0.7020     0.2450 ha         1 F7A       0.116000
     39 H19         -7.6010    -0.2910    -1.8460 ha         1 F7A       0.116000
     40 H20         -5.1600    -0.3960    -2.2390 ha         1 F7A       0.129500
@<TRIPOS>BOND
     1     1     2 1   
     2     1     5 1   
     3     1     6 1   
     4     1     9 1   
     5     3    14 1   
     6     3    15 1   
     7     3    27 1   
     8     4    14 2   
     9     5     8 ar  
    10     5    13 ar  
    11     7    17 1   
    12     7    21 1   
    13     8    10 ar  
    14     8    14 1   
    15    10    11 ar  
    16    10    28 1   
    17    11    12 ar  
    18    11    29 1   
    19    12    13 ar  
    20    12    30 1   
    21    13    31 1   
    22    15    16 ar  
    23    15    20 ar  
    24    16    17 ar  
    25    16    32 1   
    26    17    18 ar  
    27    18    19 ar  
    28    18    33 1   
    29    19    20 ar  
    30    19    34 1   
    31    20    35 1   
    32    21    22 ar  
    33    21    26 ar  
    34    22    23 ar  
    35    22    36 1   
    36    23    24 ar  
    37    23    37 1   
    38    24    25 ar  
    39    24    38 1   
    40    25    26 ar  
    41    25    39 1   
    42    26    40 1   
@<TRIPOS>SUBSTRUCTURE
     1 F7A         1 TEMP              0 ****  ****    0 ROOT
