@<TRIPOS>MOLECULE
F7A
   40    42     1     0     0
SMALL
No Charge or Current Charge


@<TRIPOS>ATOM
      1 C1           3.8170     2.0350    -0.0780 c3         1 F7A       0.358300
      2 F1           4.7690     2.8590     0.4180 f          1 F7A      -0.107000
      3 N1           1.0160    -1.3150     0.0010 ns         1 F7A      -0.137000
      4 O1           1.4190     0.5890    -1.2230 o          1 F7A      -0.546100
      5 C2           4.2540     0.5520    -0.0890 ca         1 F7A      -0.153300
      6 F2           2.7210     2.2430     0.6890 f          1 F7A      -0.107000
      7 O2          -3.5400     0.1230    -1.0560 os         1 F7A      -0.251200
      8 C3           3.3290    -0.5320    -0.2580 ca         1 F7A      -0.106600
      9 F3           3.5390     2.4880    -1.3210 f          1 F7A      -0.107000
     10 C4           3.8190    -1.8620    -0.1870 ca         1 F7A      -0.098000
     11 C5           5.1790    -2.1280     0.0250 ca         1 F7A      -0.085000
     12 C6           6.0820    -1.0710     0.1700 ca         1 F7A      -0.100000
     13 C7           5.6250     0.2530     0.1130 ca         1 F7A      -0.067000
     14 C8           1.8410    -0.3290    -0.5300 c          1 F7A       0.615700
     15 C9          -0.3920    -1.5080    -0.0310 ca         1 F7A       0.010000
     16 C10         -1.3020    -0.5600    -0.5480 ca         1 F7A      -0.165000
     17 C11         -2.6820    -0.8180    -0.5320 ca         1 F7A       0.165100
     18 C12         -3.1680    -2.0330    -0.0180 ca         1 F7A      -0.209000
     19 C13         -2.2720    -2.9790     0.5030 ca         1 F7A      -0.050000
     20 C14         -0.8930    -2.7120     0.4990 ca         1 F7A      -0.200000
     21 C15         -4.7620     0.4170    -0.4940 ca         1 F7A       0.096100
     22 C16         -4.9340     0.4480     0.9050 ca         1 F7A      -0.116000
     23 C17         -6.1900     0.7670     1.4520 ca         1 F7A      -0.102500
     24 C18         -7.2710     1.0640     0.6030 ca         1 F7A      -0.111000
     25 C19         -7.0970     1.0460    -0.7920 ca         1 F7A      -0.102500
     26 C20         -5.8410     0.7270    -1.3390 ca         1 F7A      -0.116000
     27 HN1          1.5100    -2.0230     0.5270 hn         1 F7A       0.156000
     28 H4           3.1540    -2.7110    -0.3270 ha         1 F7A       0.127000
     29 H5           5.5340    -3.1560     0.0660 ha         1 F7A       0.124000
     30 H6           7.1380    -1.2760     0.3280 ha         1 F7A       0.125000
     31 H7           6.3570     1.0480     0.2340 ha         1 F7A       0.136000
     32 H10         -0.9680     0.3870    -0.9550 ha         1 F7A       0.164000
     33 H12         -4.2340    -2.2450    -0.0230 ha         1 F7A       0.129000
     34 H13         -2.6440    -3.9180     0.9080 ha         1 F7A       0.113000
     35 H14         -0.2080    -3.4530     0.9060 ha         1 F7A       0.111000
     36 H16         -4.0990     0.2300     1.5670 ha         1 F7A       0.129500
     37 H17         -6.3240     0.7880     2.5310 ha         1 F7A       0.116000
     38 H18         -8.2420     1.3110     1.0270 ha         1 F7A       0.116000
     39 H19         -7.9330     1.2810    -1.4470 ha         1 F7A       0.116000
     40 H20         -5.7050     0.7150    -2.4170 ha         1 F7A       0.129500
@<TRIPOS>BOND
     1     1     2 1   
     2     1     5 1   
     3     1     6 1   
     4     1     9 1   
     5     3    14 1   
     6     3    15 1   
     7     3    27 1   
     8     4    14 2   
     9     5     8 ar  
    10     5    13 ar  
    11     7    17 1   
    12     7    21 1   
    13     8    10 ar  
    14     8    14 1   
    15    10    11 ar  
    16    10    28 1   
    17    11    12 ar  
    18    11    29 1   
    19    12    13 ar  
    20    12    30 1   
    21    13    31 1   
    22    15    16 ar  
    23    15    20 ar  
    24    16    17 ar  
    25    16    32 1   
    26    17    18 ar  
    27    18    19 ar  
    28    18    33 1   
    29    19    20 ar  
    30    19    34 1   
    31    20    35 1   
    32    21    22 ar  
    33    21    26 ar  
    34    22    23 ar  
    35    22    36 1   
    36    23    24 ar  
    37    23    37 1   
    38    24    25 ar  
    39    24    38 1   
    40    25    26 ar  
    41    25    39 1   
    42    26    40 1   
@<TRIPOS>SUBSTRUCTURE
     1 F7A         1 TEMP              0 ****  ****    0 ROOT
