@<TRIPOS>MOLECULE
F7B
   19    20     1     0     0
SMALL
bcc


@<TRIPOS>ATOM
      1 C02          1.2720    -1.5530    -0.1850 c          1 F7B       0.584700
      2 C03          2.7250    -1.1870    -0.3340 c6         1 F7B      -0.179400
      3 C04          3.1320     0.0040     0.5060 c6         1 F7B      -0.000300
      4 C06          0.6160     0.9020    -0.0130 ca         1 F7B       0.069900
      5 C07          0.2730    -0.4570    -0.0590 ca         1 F7B      -0.178600
      6 C08         -1.0770    -0.8200    -0.0360 ca         1 F7B      -0.058000
      7 C09         -2.0590     0.1440     0.0060 ca         1 F7B       0.005400
      8 C11         -1.7270     1.4940     0.0260 ca         1 F7B      -0.084000
      9 C12         -0.3980     1.8630     0.0220 ca         1 F7B      -0.125000
     10 O01          0.9150    -2.7120    -0.2110 o          1 F7B      -0.512100
     11 S05          2.2620     1.5000    -0.0150 ss         1 F7B      -0.223000
     12 CL1         -3.7260    -0.3240     0.0290 cl         1 F7B      -0.099400
     13 H1           3.3310    -2.0570    -0.0760 hc         1 F7B       0.083700
     14 H2           2.9050    -0.9720    -1.3940 hc         1 F7B       0.083700
     15 H3           2.9420    -0.1700     1.5670 h1         1 F7B       0.081200
     16 H4           4.1930     0.2160     0.3860 h1         1 F7B       0.081200
     17 H5          -1.3440    -1.8680    -0.0650 ha         1 F7B       0.168000
     18 H6          -2.4980     2.2510     0.0580 ha         1 F7B       0.151000
     19 H7          -0.1440     2.9140     0.0630 ha         1 F7B       0.149000
@<TRIPOS>BOND
     1     1     2 1   
     2     1     5 1   
     3     1    10 2   
     4     2     3 1   
     5     2    13 1   
     6     2    14 1   
     7     3    11 1   
     8     3    15 1   
     9     3    16 1   
    10     4     5 ar  
    11     4     9 ar  
    12     4    11 1   
    13     5     6 ar  
    14     6     7 ar  
    15     6    17 1   
    16     7     8 ar  
    17     7    12 1   
    18     8     9 ar  
    19     8    18 1   
    20     9    19 1   
@<TRIPOS>SUBSTRUCTURE
     1 F7B         1 TEMP              0 ****  ****    0 ROOT
