@<TRIPOS>MOLECULE
F7B
   19    20     1     0     0
SMALL
No Charge or Current Charge


@<TRIPOS>ATOM
      1 C02          1.2970    -1.5660    -0.0730 c          1 F7B       0.584700
      2 C03          2.7490    -1.2000    -0.3770 c6         1 F7B      -0.179400
      3 C04          3.2210    -0.0280     0.4920 c6         1 F7B       0.047600
      4 C06          0.5950     0.9150     0.0260 ca         1 F7B      -0.057000
      5 C07          0.2580    -0.4640    -0.0400 ca         1 F7B      -0.178600
      6 C08         -1.1110    -0.8260    -0.0710 ca         1 F7B      -0.040000
      7 C09         -2.1150     0.1550    -0.0510 ca         1 F7B       0.097000
      8 C11         -1.7730     1.5120     0.0020 ca         1 F7B      -0.066000
      9 C12         -0.4220     1.8880     0.0400 ca         1 F7B      -0.107000
     10 O01          0.9980    -2.7330     0.1540 o          1 F7B      -0.512100
     11 S05          2.2860     1.5010     0.0970 ss         1 F7B      -0.144000
     12 Cl1         -3.8080    -0.3220    -0.0960 cl         1 F7B      -0.191000
     13 H1           3.3940    -2.0830    -0.2800 hc         1 F7B       0.083700
     14 H2           2.7770    -0.8370    -1.4130 hc         1 F7B       0.083700
     15 H3           3.0760    -0.2590     1.5570 h1         1 F7B       0.081200
     16 H4           4.2880     0.1740     0.3250 h1         1 F7B       0.081200
     17 H5          -1.4040    -1.8720    -0.1180 ha         1 F7B       0.150000
     18 H6          -2.5530     2.2700     0.0160 ha         1 F7B       0.133000
     19 H7          -0.1610     2.9430     0.0860 ha         1 F7B       0.131000
@<TRIPOS>BOND
     1     1     2 1   
     2     1     5 1   
     3     1    10 2   
     4     2     3 1   
     5     2    13 1   
     6     2    14 1   
     7     3    11 1   
     8     3    15 1   
     9     3    16 1   
    10     4     5 ar  
    11     4     9 ar  
    12     4    11 1   
    13     5     6 ar  
    14     6     7 ar  
    15     6    17 1   
    16     7     8 ar  
    17     7    12 1   
    18     8     9 ar  
    19     8    18 1   
    20     9    19 1   
@<TRIPOS>SUBSTRUCTURE
     1 F7B         1 TEMP              0 ****  ****    0 ROOT
