@<TRIPOS>MOLECULE
F7C
   12    11     1     0     0
SMALL
abcg2


@<TRIPOS>ATOM
      1 O01         28.2040    -5.0630    25.7680 o          1 F7C      -0.744500
      2 C02         29.1460    -4.2710    25.5770 c          1 F7C       0.664000
      3 O03         29.1260    -3.0320    25.5110 o          1 F7C      -0.744500
      4 C04         30.5070    -4.9350    25.3580 c          1 F7C       0.454100
      5 C05         31.1130    -5.6350    26.5680 c3         1 F7C      -0.075700
      6 O06         30.6240    -5.0400    27.7370 oh         1 F7C      -0.679000
      7 C07         32.6570    -5.5290    26.5110 c          1 F7C       0.710000
      8 O08         33.2600    -6.3880    25.8520 o          1 F7C      -0.746000
      9 O09         33.1320    -4.6700    27.2810 o          1 F7C      -0.746000
     10 O10         31.0290    -4.9350    24.2620 o          1 F7C      -0.597100
     11 H051        30.8150    -6.6910    26.5220 h1         1 F7C       0.051700
     12 H061        31.3660    -4.4900    28.0390 ho         1 F7C       0.453000
@<TRIPOS>BOND
     1     1     2 1   
     2     2     3 1   
     3     2     4 1   
     4     4     5 1   
     5     4    10 2   
     6     5     6 1   
     7     5     7 1   
     8     5    11 1   
     9     6    12 1   
    10     7     8 1   
    11     7     9 1   
@<TRIPOS>SUBSTRUCTURE
     1 F7C         1 TEMP              0 ****  ****    0 ROOT
