@<TRIPOS>MOLECULE
F7C
   12    11     1     0     0
SMALL
No Charge or Current Charge


@<TRIPOS>ATOM
      1 O01         28.8200    -5.8460    25.2850 o          1 F7C      -0.744500
      2 C02         29.4380    -4.8200    25.0090 c          1 F7C       0.664000
      3 O03         29.3000    -4.2370    23.9350 o          1 F7C      -0.744500
      4 C04         30.4300    -4.1820    26.1260 c          1 F7C       0.454100
      5 C05         31.1220    -5.1920    27.0790 c3         1 F7C      -0.075700
      6 O06         31.9230    -4.5410    28.1280 oh         1 F7C      -0.679000
      7 C07         31.9400    -6.1730    26.1940 c          1 F7C       0.710000
      8 O08         31.8620    -7.3700    26.4290 o          1 F7C      -0.746000
      9 O09         32.6980    -5.7040    25.3570 o          1 F7C      -0.746000
     10 O10         30.6330    -2.9620    26.2210 o          1 F7C      -0.597100
     11 H051        30.3190    -5.7790    27.5420 h1         1 F7C       0.051700
     12 H061        32.4940    -3.8720    27.6800 ho         1 F7C       0.453000
@<TRIPOS>BOND
     1     1     2 1   
     2     2     3 1   
     3     2     4 1   
     4     4     5 1   
     5     4    10 2   
     6     5     6 1   
     7     5     7 1   
     8     5    11 1   
     9     6    12 1   
    10     7     8 1   
    11     7     9 1   
@<TRIPOS>SUBSTRUCTURE
     1 F7C         1 TEMP              0 ****  ****    0 ROOT
