@<TRIPOS>MOLECULE
F7D
   43    45     1     0     0
SMALL
No Charge or Current Charge


@<TRIPOS>ATOM
      1 C4          -2.0440    -0.8610    -0.5540 ca         1 F7D      -0.215000
      2 C14          2.8620     0.6370     0.1810 ca         1 F7D       0.343000
      3 C5           0.3230     0.3560    -0.1120 ca         1 F7D       0.382900
      4 C6          -0.8570    -1.5940    -0.3310 ca         1 F7D       0.133900
      5 C11         -2.8080     3.6610     0.3780 c1         1 F7D      -0.147100
      6 C9          -3.4870    -3.8430     0.0540 c1         1 F7D      -0.184100
      7 C12         -2.6050     4.3380     1.3610 c1         1 F7D      -0.213000
      8 C13         -3.5370    -4.5700     1.0210 c1         1 F7D      -0.201000
      9 N1          -3.0910     1.3640    -0.4720 nh         1 F7D      -0.734300
     10 N2          -3.3400    -1.5040    -0.7020 n          1 F7D      -0.206400
     11 C3          -1.9390     0.5450    -0.4240 ca         1 F7D       0.340900
     12 N3          -0.7510     1.1490    -0.2280 nb         1 F7D      -0.212000
     13 C1          -4.5490    -0.7630    -0.6410 c          1 F7D       0.535000
     14 C2          -4.4290     0.7350    -0.2260 c6         1 F7D       0.128500
     15 N4           0.3260    -0.9880    -0.1260 nb         1 F7D      -0.219000
     16 O1          -5.6410    -1.2570    -0.9060 o          1 F7D      -0.524000
     17 N5           1.5220     1.0240     0.1180 nu         1 F7D      -0.924900
     18 C15          3.7480     1.4170     0.9380 ca         1 F7D      -0.182000
     19 C16          5.1050     1.0720     1.0190 ca         1 F7D       0.161000
     20 C17          5.6040    -0.0550     0.3350 ca         1 F7D       0.032100
     21 C18          4.7100    -0.8250    -0.4380 ca         1 F7D       0.161000
     22 C19          3.3520    -0.4790    -0.5170 ca         1 F7D      -0.182000
     23 F1           5.1540    -1.9050    -1.1220 f          1 F7D      -0.170000
     24 O2           6.9370    -0.3920     0.4140 oh         1 F7D      -0.508100
     25 F2           5.9380     1.8360     1.7640 f          1 F7D      -0.170000
     26 H1          -0.8380    -2.6820    -0.3230 h4         1 F7D       0.034100
     27 H2          -4.8160     1.8990     1.6040 hc         1 F7D       0.055700
     28 H3          -5.7630     0.4130     1.4940 hc         1 F7D       0.055700
     29 H4          -4.0410     0.3340     1.9040 hc         1 F7D       0.055700
     30 H5          -2.5300    -3.1870    -1.7020 h1         1 F7D       0.081200
     31 H6          -4.2810    -3.1040    -1.7460 h1         1 F7D       0.081200
     32 H7          -3.9720     3.1260    -1.2810 h1         1 F7D       0.060700
     33 H8          -2.2360     3.0010    -1.5320 h1         1 F7D       0.060700
     34 H9          -2.4180     4.9270     2.2370 ha         1 F7D       0.255000
     35 H10         -3.5840    -5.2240     1.8700 ha         1 F7D       0.259000
     36 H11         -5.2060     1.2560    -0.8050 h1         1 F7D       0.087700
     37 H12          1.3700     2.0040     0.3560 hn         1 F7D       0.517000
     38 H13          3.3870     2.2880     1.4760 ha         1 F7D       0.154500
     39 H14          2.6950    -1.0750    -1.1400 ha         1 F7D       0.154500
     40 H15          7.3950     0.2590     0.9920 ho         1 F7D       0.476000
     41 C7          -4.7810     0.8530     1.2820 c3         1 F7D      -0.083100
     42 C8          -3.4110    -2.9320    -1.0990 c3         1 F7D       0.181100
     43 C10         -3.0350     2.8100    -0.8010 c3         1 F7D       0.284900
@<TRIPOS>BOND
     1     1     4 ar  
     2     1    10 1   
     3     1    11 ar  
     4     2    17 1   
     5     2    18 ar  
     6     2    22 ar  
     7     3    12 ar  
     8     3    15 ar  
     9     3    17 1   
    10     4    15 ar  
    11     4    26 1   
    12     5     7 3   
    13     5    43 1   
    14     6     8 3   
    15     6    42 1   
    16     7    34 1   
    17     8    35 1   
    18     9    11 1   
    19     9    14 1   
    20     9    43 1   
    21    10    13 1   
    22    10    42 1   
    23    11    12 ar  
    24    13    14 1   
    25    13    16 2   
    26    14    36 1   
    27    14    41 1   
    28    17    37 1   
    29    18    19 ar  
    30    18    38 1   
    31    19    20 ar  
    32    19    25 1   
    33    20    21 ar  
    34    20    24 1   
    35    21    22 ar  
    36    21    23 1   
    37    22    39 1   
    38    24    40 1   
    39    27    41 1   
    40    28    41 1   
    41    29    41 1   
    42    30    42 1   
    43    31    42 1   
    44    32    43 1   
    45    33    43 1   
@<TRIPOS>SUBSTRUCTURE
     1 F7D         1 TEMP              0 ****  ****    0 ROOT
