@<TRIPOS>MOLECULE
F7D
   43    45     1     0     0
SMALL
bcc


@<TRIPOS>ATOM
      1 C4          -2.0780    -0.7160    -0.5660 ca         1 F7D      -0.253000
      2 C14          2.8270     0.4780     0.0830 ca         1 F7D       0.204600
      3 C5           0.3340     0.3510    -0.1490 ca         1 F7D       0.908900
      4 C6          -0.9170    -1.4600    -0.6650 ca         1 F7D       0.462200
      5 C11         -2.4680     2.5070     1.9520 c1         1 F7D      -0.147100
      6 C9          -3.2210    -3.0990     0.8860 c1         1 F7D      -0.184100
      7 C12         -1.6900     3.0890     2.6580 c1         1 F7D      -0.125500
      8 C13         -2.9420    -3.4440     2.0020 c1         1 F7D      -0.113500
      9 N1          -3.0310     1.4640    -0.1890 nh         1 F7D      -0.734300
     10 N2          -3.3680    -1.2550    -0.6660 n          1 F7D      -0.366000
     11 C3          -1.9070     0.6420    -0.2600 ca         1 F7D       0.669200
     12 N3          -0.7210     1.1640    -0.0570 nb         1 F7D      -0.738000
     13 C1          -4.4480    -0.4430    -0.8650 c          1 F7D       0.677500
     14 C2          -4.0700     1.0120    -1.1140 c6         1 F7D       0.128500
     15 N4           0.2850    -0.9360    -0.4600 nb         1 F7D      -0.745000
     16 O1          -5.5910    -0.8540    -0.8700 o          1 F7D      -0.599500
     17 N5           1.5280     0.9620     0.0950 nu         1 F7D      -0.731300
     18 C15          3.8410     1.4020     0.3520 ca         1 F7D      -0.200000
     19 C16          5.1530     0.9920     0.3600 ca         1 F7D       0.125900
     20 C17          5.5470    -0.3160     0.1090 ca         1 F7D       0.032100
     21 C18          4.5130    -1.2020    -0.1530 ca         1 F7D       0.125900
     22 C19          3.1800    -0.8480    -0.1730 ca         1 F7D      -0.200000
     23 F1           4.8430    -2.4770    -0.4020 f          1 F7D      -0.134900
     24 O2           6.8200    -0.7540     0.1060 oh         1 F7D      -0.469100
     25 F2           6.1180     1.8900     0.6210 f          1 F7D      -0.134900
     26 H1          -0.9370    -2.5190    -0.8940 h4         1 F7D       0.034100
     27 H2          -4.9530     2.9600    -1.2680 hc         1 F7D       0.055700
     28 H3          -5.8990     1.6790    -2.0130 hc         1 F7D       0.055700
     29 H4          -5.9040     1.8510    -0.2660 hc         1 F7D       0.055700
     30 H5          -2.9580    -3.2420    -1.1950 h1         1 F7D       0.081200
     31 H6          -4.5960    -2.9200    -0.6910 h1         1 F7D       0.081200
     32 H7          -3.8150     0.9290     1.7280 h1         1 F7D       0.060700
     33 H8          -4.3390     2.4710     1.0770 h1         1 F7D       0.060700
     34 H9          -0.9860     3.6020     3.2710 ha         1 F7D       0.167500
     35 H10         -2.7040    -3.7420     2.9980 ha         1 F7D       0.171500
     36 H11         -3.6100     1.0380    -2.1090 h1         1 F7D       0.087700
     37 H12          1.4320     1.9440     0.3050 hn         1 F7D       0.461800
     38 H13          3.6120     2.4410     0.5560 ha         1 F7D       0.172500
     39 H14          2.4360    -1.5980    -0.3850 ha         1 F7D       0.172500
     40 H15          7.4320    -0.0310     0.2830 ho         1 F7D       0.437000
     41 C7          -5.2790     1.9260    -1.1540 c3         1 F7D      -0.083100
     42 C8          -3.5560    -2.6840    -0.4720 c3         1 F7D       0.181100
     43 C10         -3.4760     1.8100     1.1650 c3         1 F7D       0.284900
@<TRIPOS>BOND
     1     1     4 ar  
     2     1    10 1   
     3     1    11 ar  
     4     2    17 1   
     5     2    18 ar  
     6     2    22 ar  
     7     3    12 ar  
     8     3    15 ar  
     9     3    17 1   
    10     4    15 ar  
    11     4    26 1   
    12     5     7 3   
    13     5    43 1   
    14     6     8 3   
    15     6    42 1   
    16     7    34 1   
    17     8    35 1   
    18     9    11 1   
    19     9    14 1   
    20     9    43 1   
    21    10    13 1   
    22    10    42 1   
    23    11    12 ar  
    24    13    14 1   
    25    13    16 2   
    26    14    36 1   
    27    14    41 1   
    28    17    37 1   
    29    18    19 ar  
    30    18    38 1   
    31    19    20 ar  
    32    19    25 1   
    33    20    21 ar  
    34    20    24 1   
    35    21    22 ar  
    36    21    23 1   
    37    22    39 1   
    38    24    40 1   
    39    27    41 1   
    40    28    41 1   
    41    29    41 1   
    42    30    42 1   
    43    31    42 1   
    44    32    43 1   
    45    33    43 1   
@<TRIPOS>SUBSTRUCTURE
     1 F7D         1 TEMP              0 ****  ****    0 ROOT
