@<TRIPOS>MOLECULE
F7E
   59    62     1     0     0
SMALL
No Charge or Current Charge


@<TRIPOS>ATOM
      1 O3          -0.2390    -2.1700    -0.7890 os         1 F7E      -0.566400
      2 C3           3.5550    -0.8700    -1.2050 c5         1 F7E       0.325300
      3 C4           3.9770    -2.0980    -0.3380 c5         1 F7E       0.065300
      4 O4          -1.0310    -2.1440     1.6300 o          1 F7E      -0.855000
      5 C7           0.8900    -3.0460    -0.6460 c3         1 F7E       0.216600
      6 C9          -5.5510    -0.3030    -1.0720 c6         1 F7E       0.144300
      7 O7          -5.0740    -1.6390    -0.8170 oh         1 F7E      -0.649000
      8 O8          -5.0830     2.1120    -1.0760 os         1 F7E      -0.473000
      9 C8          -4.4970     0.8250    -0.7710 c6         1 F7E       0.473300
     10 O6          -3.3340     0.6770    -1.5790 os         1 F7E      -0.546400
     11 C6           2.0320    -2.6300    -1.6220 c5         1 F7E       0.158300
     12 C5           3.4250    -3.2380    -1.2360 c5         1 F7E       0.096300
     13 O5          -2.0410    -0.7030    -0.1360 os         1 F7E      -0.690800
     14 C1           4.2780     2.2440     0.5100 cc         1 F7E       0.115500
     15 O1           5.3980    -2.2090    -0.1250 oh         1 F7E      -0.708000
     16 C2           2.5650     1.3650    -0.4670 cd         1 F7E       0.507400
     17 O2           4.2850    -3.4470    -2.3650 oh         1 F7E      -0.716000
     18 O13          0.3180    -0.2500     0.8490 o          1 F7E      -0.855000
     19 P           -0.6990    -1.2700     0.4650 p5         1 F7E       1.456800
     20 P1          -1.9280     0.7160    -0.8060 p5         1 F7E       1.470800
     21 O11         -0.8350     0.8270    -1.8160 o          1 F7E      -0.836000
     22 O12         -1.9180     1.8310     0.1870 o          1 F7E      -0.836000
     23 C10         -6.2170     2.4690    -0.2430 c6         1 F7E       0.109300
     24 C11         -5.7310     2.7420     1.2120 c3         1 F7E      -0.111100
     25 C12         -7.3450     1.3950    -0.2870 c          1 F7E       0.525100
     26 O10         -8.5340     1.6990    -0.3470 o          1 F7E      -0.562100
     27 C13         -6.8800    -0.0970    -0.2840 c6         1 F7E       0.023300
     28 O9          -6.7280    -0.5840     1.0750 oh         1 F7E      -0.620000
     29 O14          2.2140    -1.1840    -1.6340 os         1 F7E      -0.389000
     30 N1           3.5970     0.4300    -0.5430 na         1 F7E      -0.185500
     31 N            2.9690     2.4770     0.1610 nc         1 F7E      -0.599000
     32 C14          4.6760     1.0030     0.0900 cd         1 F7E       0.091400
     33 N2           5.9570     0.4820     0.2940 nd         1 F7E      -0.672100
     34 C15          6.7470     1.3160     0.9350 cc         1 F7E       0.684800
     35 N3           7.9830     0.9110     1.1640 nv         1 F7E      -1.069200
     36 N4           6.4420     2.5530     1.3890 ns         1 F7E      -0.460400
     37 C            5.2210     3.1330     1.2340 c          1 F7E       0.518500
     38 O            4.9790     4.2560     1.6580 o          1 F7E      -0.552000
     39 H1           4.2060    -0.7880    -2.0840 h2         1 F7E       0.086700
     40 H2           3.4490    -2.0700     0.6260 h1         1 F7E       0.076700
     41 H4           1.2770    -3.0270     0.3820 h1         1 F7E       0.010200
     42 H5           0.5960    -4.0800    -0.8650 h1         1 F7E       0.010200
     43 H7          -5.3830    -1.8320     0.0990 ho         1 F7E       0.468000
     44 H8          -4.2310     0.7690     0.2960 h2         1 F7E       0.072700
     45 H9           1.7350    -2.9500    -2.6300 h1         1 F7E       0.090700
     46 H10          3.3130    -4.1730    -0.6700 h1         1 F7E       0.044700
     47 H11          5.7110    -1.2860     0.1010 ho         1 F7E       0.495000
     48 H12          1.5870     1.1830    -0.8990 h5         1 F7E       0.143100
     49 H13          5.1950    -3.3120    -2.0030 ho         1 F7E       0.499000
     50 H15         -6.6480     3.3980    -0.6410 h1         1 F7E       0.069700
     51 H16         -4.8780     3.4310     1.2190 hc         1 F7E       0.050033
     52 H17         -6.5300     3.2060     1.8020 hc         1 F7E       0.050033
     53 H18         -5.4330     1.8280     1.7380 hc         1 F7E       0.050033
     54 H19         -7.6700    -0.6700    -0.7920 h1         1 F7E       0.022700
     55 H20         -7.6190    -0.5770     1.4950 ho         1 F7E       0.423000
     56 H21          8.2540     0.0920     0.6340 hn         1 F7E       0.482000
     57 H22          8.6950     1.6230     1.2610 hn         1 F7E       0.482000
     58 H23          7.1390     3.0830     1.8870 hn         1 F7E       0.296500
     59 H6          -5.7940    -0.2150    -2.1410 h1         1 F7E       0.044700
@<TRIPOS>BOND
     1     1     5 1   
     2     1    19 1   
     3     2     3 1   
     4     2    29 1   
     5     2    30 1   
     6     2    39 1   
     7     3    12 1   
     8     3    15 1   
     9     3    40 1   
    10     4    19 1   
    11     5    11 1   
    12     5    41 1   
    13     5    42 1   
    14     6     7 1   
    15     6     9 1   
    16     6    27 1   
    17     6    59 1   
    18     7    43 1   
    19     8     9 1   
    20     8    23 1   
    21     9    10 1   
    22     9    44 1   
    23    10    20 1   
    24    11    12 1   
    25    11    29 1   
    26    11    45 1   
    27    12    17 1   
    28    12    46 1   
    29    13    19 1   
    30    13    20 1   
    31    14    31 1   
    32    14    32 2   
    33    14    37 1   
    34    15    47 1   
    35    16    30 1   
    36    16    31 2   
    37    16    48 1   
    38    17    49 1   
    39    18    19 1   
    40    20    21 1   
    41    20    22 1   
    42    23    24 1   
    43    23    25 1   
    44    23    50 1   
    45    24    51 1   
    46    24    52 1   
    47    24    53 1   
    48    25    26 2   
    49    25    27 1   
    50    27    28 1   
    51    27    54 1   
    52    28    55 1   
    53    30    32 1   
    54    32    33 1   
    55    33    34 2   
    56    34    35 1   
    57    34    36 1   
    58    35    56 1   
    59    35    57 1   
    60    36    37 1   
    61    36    58 1   
    62    37    38 2   
@<TRIPOS>SUBSTRUCTURE
     1 F7E         1 TEMP              0 ****  ****    0 ROOT
