@<TRIPOS>MOLECULE
F7E
   59    62     1     0     0
SMALL
abcg2


@<TRIPOS>ATOM
      1 O3           0.1540    -2.9260     0.1340 os         1 F7E      -0.566400
      2 C3           3.6120    -1.2870    -0.7540 c5         1 F7E       0.325300
      3 C4           4.3100    -2.3580     0.0870 c5         1 F7E       0.065300
      4 O4          -1.4590    -3.7570     1.9450 o          1 F7E      -0.855000
      5 C7           1.4200    -3.4890     0.3740 c3         1 F7E       0.216600
      6 C9          -5.3120     0.1630    -1.4690 c6         1 F7E       0.144300
      7 O7          -5.4940    -1.2130    -1.2960 oh         1 F7E      -0.649000
      8 O8          -4.0520     2.0260    -0.7080 os         1 F7E      -0.473000
      9 C8          -4.2730     0.6530    -0.4660 c6         1 F7E       0.473300
     10 O6          -3.0780     0.0110    -0.6990 os         1 F7E      -0.546400
     11 C6           2.3200    -3.2220    -0.8190 c5         1 F7E       0.158300
     12 C5           3.7540    -3.6410    -0.5370 c5         1 F7E       0.096300
     13 O5          -1.8900    -1.6570     0.6250 os         1 F7E      -0.690800
     14 C1           3.6450     1.9620     0.7680 cc         1 F7E       0.115500
     15 O1           5.6960    -2.2130    -0.0000 oh         1 F7E      -0.708000
     16 C2           2.4200     0.2360     0.8800 cd         1 F7E       0.507400
     17 O2           4.3960    -3.9280    -1.7520 oh         1 F7E      -0.716000
     18 O13          0.0200    -1.6660     2.3710 o          1 F7E      -0.855000
     19 P           -0.7720    -2.5290     1.4360 p5         1 F7E       1.456800
     20 P1          -1.8830    -0.0150     0.4590 p5         1 F7E       1.470800
     21 O11         -0.6300     0.4300    -0.2150 o          1 F7E      -0.836000
     22 O12         -2.3980     0.6140     1.7120 o          1 F7E      -0.836000
     23 C10         -5.1300     2.8980    -0.4510 c6         1 F7E       0.109300
     24 C11         -5.4180     3.1060     1.0340 c3         1 F7E      -0.111100
     25 C12         -6.3680     2.4460    -1.2090 c          1 F7E       0.525100
     26 O10         -7.1530     3.2360    -1.6760 o          1 F7E      -0.562100
     27 C13         -6.6140     0.9400    -1.2760 c6         1 F7E       0.023300
     28 O9          -7.1820     0.5660    -0.0400 oh         1 F7E      -0.620000
     29 O14          2.3790    -1.8260    -1.1220 os         1 F7E      -0.389000
     30 N1           3.3980    -0.0440    -0.0470 na         1 F7E      -0.185500
     31 N            2.5420     1.4260     1.3840 nc         1 F7E      -0.599000
     32 C14          4.1870     1.0610    -0.1290 cd         1 F7E       0.091400
     33 N2           5.2520     1.2230    -0.9290 nd         1 F7E      -0.672100
     34 C15          5.8160     2.3970    -0.8050 cc         1 F7E       0.684800
     35 N3           6.9150     2.6910    -1.5170 nv         1 F7E      -1.069200
     36 N4           5.3610     3.3550     0.0550 ns         1 F7E      -0.460400
     37 C            4.2540     3.2400     0.9070 c          1 F7E       0.518500
     38 O            3.9350     4.1680     1.6340 o          1 F7E      -0.552000
     39 H1           4.2220    -1.0400    -1.6300 h2         1 F7E       0.086700
     40 H2           3.9620    -2.2850     1.1250 h1         1 F7E       0.076700
     41 H4           1.8700    -3.0790     1.2860 h1         1 F7E       0.010200
     42 H5           1.3530    -4.5750     0.5110 h1         1 F7E       0.010200
     43 H7          -6.1060    -1.5280    -1.9680 ho         1 F7E       0.468000
     44 H8          -4.6210     0.4910     0.5620 h2         1 F7E       0.072700
     45 H9           1.9220    -3.7400    -1.6970 h1         1 F7E       0.090700
     46 H10          3.8040    -4.4890     0.1590 h1         1 F7E       0.044700
     47 H11          6.1030    -2.6690     0.7430 ho         1 F7E       0.495000
     48 H12          1.6290    -0.4620     1.1140 h5         1 F7E       0.143100
     49 H13          5.3460    -3.8320    -1.6160 ho         1 F7E       0.499000
     50 H15         -4.8310     3.8610    -0.8750 h1         1 F7E       0.069700
     51 H16         -4.5120     3.4460     1.5340 hc         1 F7E       0.050033
     52 H17         -6.1790     3.8760     1.1570 hc         1 F7E       0.050033
     53 H18         -5.7700     2.2050     1.5320 hc         1 F7E       0.050033
     54 H19         -7.2960     0.7340    -2.1120 h1         1 F7E       0.022700
     55 H20         -8.0910     0.8810    -0.0100 ho         1 F7E       0.423000
     56 H21          7.1720     2.0620    -2.2590 hn         1 F7E       0.482000
     57 H22          7.2440     3.6380    -1.5980 hn         1 F7E       0.482000
     58 H23          5.8520     4.2390     0.0920 hn         1 F7E       0.296500
     59 H6          -4.9380     0.4040    -2.4750 h1         1 F7E       0.044700
@<TRIPOS>BOND
     1     1     5 1   
     2     1    19 1   
     3     2     3 1   
     4     2    29 1   
     5     2    30 1   
     6     2    39 1   
     7     3    12 1   
     8     3    15 1   
     9     3    40 1   
    10     4    19 1   
    11     5    11 1   
    12     5    41 1   
    13     5    42 1   
    14     6     7 1   
    15     6     9 1   
    16     6    27 1   
    17     6    59 1   
    18     7    43 1   
    19     8     9 1   
    20     8    23 1   
    21     9    10 1   
    22     9    44 1   
    23    10    20 1   
    24    11    12 1   
    25    11    29 1   
    26    11    45 1   
    27    12    17 1   
    28    12    46 1   
    29    13    19 1   
    30    13    20 1   
    31    14    31 1   
    32    14    32 2   
    33    14    37 1   
    34    15    47 1   
    35    16    30 1   
    36    16    31 2   
    37    16    48 1   
    38    17    49 1   
    39    18    19 1   
    40    20    21 1   
    41    20    22 1   
    42    23    24 1   
    43    23    25 1   
    44    23    50 1   
    45    24    51 1   
    46    24    52 1   
    47    24    53 1   
    48    25    26 2   
    49    25    27 1   
    50    27    28 1   
    51    27    54 1   
    52    28    55 1   
    53    30    32 1   
    54    32    33 1   
    55    33    34 2   
    56    34    35 1   
    57    34    36 1   
    58    35    56 1   
    59    35    57 1   
    60    36    37 1   
    61    36    58 1   
    62    37    38 2   
@<TRIPOS>SUBSTRUCTURE
     1 F7E         1 TEMP              0 ****  ****    0 ROOT
