@<TRIPOS>MOLECULE
F7I
   55    59     1     0     0
SMALL
abcg2


@<TRIPOS>ATOM
      1 C23        -15.0630     3.5170    25.6180 cc         1 F7I       0.451500
      2 C19        -15.7740     3.5730    23.0050 cd         1 F7I      -0.269000
      3 C18        -16.3460     2.6490    23.9450 cd         1 F7I       0.656900
      4 C17        -17.9240     0.8720    24.4930 c3         1 F7I       0.203800
      5 C20        -14.8510     4.4550    23.4510 cc         1 F7I       0.004000
      6 C21        -13.5780     4.8070    26.6080 cd         1 F7I       0.423500
      7 C16        -17.0540    -0.3540    24.7950 c3         1 F7I       0.140600
      8 C13        -15.9240     1.2390    29.2450 ca         1 F7I       0.168100
      9 C11        -14.7090     3.0060    28.0910 ca         1 F7I       0.082200
     10 C12        -15.6820     2.0060    28.1150 ca         1 F7I      -0.220000
     11 C10        -13.9870     3.2460    29.2640 ca         1 F7I      -0.163000
     12 C6         -19.4630     0.2850    33.9380 ca         1 F7I      -0.110000
     13 C5         -19.4870    -0.0060    35.2950 ca         1 F7I      -0.112000
     14 C1         -16.1340    -1.2490    32.8890 c3         1 F7I       0.155300
     15 C2         -17.3040    -0.7740    33.7220 ca         1 F7I      -0.096300
     16 C3         -17.3340    -1.0590    35.0850 ca         1 F7I      -0.100000
     17 O1         -16.8740     0.2760    29.2600 os         1 F7I      -0.370100
     18 O2         -17.5210    -1.0860    25.9100 os         1 F7I      -0.455000
     19 C4         -18.4160    -0.6820    35.8670 ca         1 F7I      -0.110000
     20 C7         -18.3800    -0.0970    33.1570 ca         1 F7I      -0.100000
     21 N          -15.9060    -0.4870    31.6890 ns         1 F7I      -0.499900
     22 O          -14.9270     1.2240    32.7620 o          1 F7I      -0.610100
     23 C14        -17.6240    -0.0140    28.0870 c3         1 F7I       0.137600
     24 C15        -16.8290    -0.8980    27.1220 c3         1 F7I       0.125600
     25 C22        -14.4670     3.7420    26.8620 cd         1 F7I      -0.270800
     26 C8         -15.1930     1.4690    30.4240 ca         1 F7I      -0.194600
     27 C9         -14.2430     2.4940    30.3930 ca         1 F7I      -0.025000
     28 N1         -17.2850     1.7710    23.5590 nu         1 F7I      -0.930100
     29 N2         -14.4990     4.4270    24.7600 na         1 F7I       0.082900
     30 N3         -13.5920     5.2210    25.3580 nc         1 F7I      -0.578100
     31 N4         -15.9800     2.6410    25.2100 nc         1 F7I      -0.777000
     32 H1         -16.0730     3.5750    21.9670 ha         1 F7I       0.140000
     33 H2         -18.1450     1.4130    25.4140 h1         1 F7I       0.063700
     34 H3         -18.8760     0.5650    24.0610 h1         1 F7I       0.063700
     35 H4         -14.3660     5.1920    22.8280 h4         1 F7I       0.164000
     36 H5         -12.9180     5.2930    27.3130 h4         1 F7I       0.051800
     37 H6         -17.0650    -1.0220    23.9300 h1         1 F7I       0.053700
     38 H7         -16.0170    -0.0370    24.9450 h1         1 F7I       0.053700
     39 H8         -16.2440     1.8340    27.2120 ha         1 F7I       0.145000
     40 H9         -13.2220     4.0100    29.3000 ha         1 F7I       0.116000
     41 H11        -20.3310     0.2930    35.9040 ha         1 F7I       0.109000
     42 H12        -16.3120    -2.2800    32.5800 h1         1 F7I       0.055700
     43 H13        -15.2320    -1.2630    33.5020 h1         1 F7I       0.055700
     44 H14        -16.4990    -1.5790    35.5410 ha         1 F7I       0.112000
     45 H15        -18.4210    -0.9100    36.9260 ha         1 F7I       0.109500
     46 H16        -18.3750     0.1400    32.1000 ha         1 F7I       0.112000
     47 H17        -16.2750    -0.8390    30.8220 hn         1 F7I       0.330500
     48 H18        -17.9660     0.9040    27.6040 h1         1 F7I       0.064700
     49 H19        -18.5100    -0.5430    28.4350 h1         1 F7I       0.064700
     50 H20        -16.6790    -1.8770    27.5860 h1         1 F7I       0.058200
     51 H21        -15.8330    -0.4750    26.9460 h1         1 F7I       0.058200
     52 H22        -13.6790     2.6960    31.2940 ha         1 F7I       0.138000
     53 H23        -17.5700     1.7600    22.5950 hn         1 F7I       0.504000
     54 C          -15.3440     0.7360    31.7180 c          1 F7I       0.622700
     55 H10        -20.2920     0.8130    33.4830 ha         1 F7I       0.109500
@<TRIPOS>BOND
     1     1    25 2   
     2     1    29 1   
     3     1    31 1   
     4     2     3 1   
     5     2     5 2   
     6     2    32 1   
     7     3    28 1   
     8     3    31 2   
     9     4     7 1   
    10     4    28 1   
    11     4    33 1   
    12     4    34 1   
    13     5    29 1   
    14     5    35 1   
    15     6    25 1   
    16     6    30 2   
    17     6    36 1   
    18     7    18 1   
    19     7    37 1   
    20     7    38 1   
    21     8    10 ar  
    22     8    17 1   
    23     8    26 ar  
    24     9    10 ar  
    25     9    11 ar  
    26     9    25 1   
    27    10    39 1   
    28    11    27 ar  
    29    11    40 1   
    30    12    13 ar  
    31    12    20 ar  
    32    12    55 1   
    33    13    19 ar  
    34    13    41 1   
    35    14    15 1   
    36    14    21 1   
    37    14    42 1   
    38    14    43 1   
    39    15    16 ar  
    40    15    20 ar  
    41    16    19 ar  
    42    16    44 1   
    43    17    23 1   
    44    18    24 1   
    45    19    45 1   
    46    20    46 1   
    47    21    47 1   
    48    21    54 1   
    49    22    54 2   
    50    23    24 1   
    51    23    48 1   
    52    23    49 1   
    53    24    50 1   
    54    24    51 1   
    55    26    27 ar  
    56    26    54 1   
    57    27    52 1   
    58    28    53 1   
    59    29    30 1   
@<TRIPOS>SUBSTRUCTURE
     1 F7I         1 TEMP              0 ****  ****    0 ROOT
