@<TRIPOS>MOLECULE
F7I
   55    59     1     0     0
SMALL
No Charge or Current Charge


@<TRIPOS>ATOM
      1 C23        -14.9830     3.5950    25.6450 cc         1 F7I       0.451500
      2 C19        -15.6520     3.7730    23.1070 cd         1 F7I      -0.269000
      3 C18        -16.1400     2.7340    23.9750 cd         1 F7I       0.656900
      4 C17        -17.8110     0.8620    24.3650 c3         1 F7I       0.203800
      5 C20        -14.7650     4.7580    23.5570 cc         1 F7I       0.004000
      6 C21        -13.6080     4.9080    26.7810 cd         1 F7I       0.423500
      7 C16        -17.0990    -0.5060    24.5720 c3         1 F7I       0.140600
      8 C13        -15.9400     1.1730    29.2910 ca         1 F7I       0.168100
      9 C11        -14.6940     2.9510    28.1190 ca         1 F7I       0.082200
     10 C12        -15.7750     2.0570    28.2110 ca         1 F7I      -0.220000
     11 C10        -13.8280     3.0400    29.2200 ca         1 F7I      -0.163000
     12 C6         -19.8520    -0.6030    34.3670 ca         1 F7I      -0.110000
     13 C5         -19.4840     0.2250    35.4410 ca         1 F7I      -0.112000
     14 C1         -16.4370    -1.4250    32.8260 c3         1 F7I       0.155300
     15 C2         -17.5050    -0.8500    33.7440 ca         1 F7I      -0.096300
     16 C3         -17.1420    -0.0180    34.8210 ca         1 F7I      -0.100000
     17 O1         -16.9530     0.2220    29.2540 os         1 F7I      -0.370100
     18 O2         -17.5300    -1.1200    25.8170 os         1 F7I      -0.455000
     19 C4         -18.1290     0.5180    35.6680 ca         1 F7I      -0.110000
     20 C7         -18.8660    -1.1390    33.5210 ca         1 F7I      -0.100000
     21 N          -16.1660    -0.5320    31.7010 ns         1 F7I      -0.499900
     22 O          -14.3370     0.4800    32.5520 o          1 F7I      -0.610100
     23 C14        -17.7090    -0.1160    28.0560 c3         1 F7I       0.137600
     24 C15        -16.7690    -0.7640    27.0010 c3         1 F7I       0.125600
     25 C22        -14.4450     3.7520    26.8950 cd         1 F7I      -0.270800
     26 C8         -15.0520     1.2560    30.3980 ca         1 F7I      -0.194600
     27 C9         -14.0110     2.2160    30.3440 ca         1 F7I      -0.025000
     28 N1         -17.0180     1.8050    23.5220 nu         1 F7I      -0.930100
     29 N2         -14.4390     4.6250    24.9090 na         1 F7I       0.082900
     30 N3         -13.5830     5.4650    25.5690 nc         1 F7I      -0.578100
     31 N4         -15.8110     2.5990    25.2310 nc         1 F7I      -0.777000
     32 H1         -15.9800     3.7950    22.0760 ha         1 F7I       0.140000
     33 H2         -18.0200     1.3120    25.3450 h1         1 F7I       0.063700
     34 H3         -18.7880     0.6740    23.8980 h1         1 F7I       0.063700
     35 H4         -14.3370     5.5740    22.9880 h4         1 F7I       0.164000
     36 H5         -13.0170     5.3670    27.5640 h4         1 F7I       0.051800
     37 H6         -17.3450    -1.1540    23.7210 h1         1 F7I       0.053700
     38 H7         -16.0100    -0.3640    24.5670 h1         1 F7I       0.053700
     39 H8         -16.5100     2.0460    27.4260 ha         1 F7I       0.145000
     40 H9         -12.9870     3.7270    29.2070 ha         1 F7I       0.116000
     41 H11        -20.2480     0.6400    36.0960 ha         1 F7I       0.109000
     42 H12        -16.7740    -2.3920    32.4290 h1         1 F7I       0.055700
     43 H13        -15.5140    -1.6080    33.3920 h1         1 F7I       0.055700
     44 H14        -16.0950     0.2160    35.0000 ha         1 F7I       0.112000
     45 H15        -17.8420     1.1600    36.4970 ha         1 F7I       0.109500
     46 H16        -19.1600    -1.7770    32.6900 ha         1 F7I       0.112000
     47 H17        -16.7940    -0.5450    30.9070 hn         1 F7I       0.330500
     48 H18        -18.2100     0.7650    27.6380 h1         1 F7I       0.064700
     49 H19        -18.4920    -0.8420    28.3090 h1         1 F7I       0.064700
     50 H20        -16.3200    -1.6640    27.4390 h1         1 F7I       0.058200
     51 H21        -15.9480    -0.0800    26.7540 h1         1 F7I       0.058200
     52 H22        -13.3110     2.3120    31.1720 ha         1 F7I       0.138000
     53 H23        -17.3170     1.9580    22.5600 hn         1 F7I       0.504000
     54 C          -15.1430     0.3820    31.6360 c          1 F7I       0.622700
     55 H10        -20.9010    -0.8290    34.1900 ha         1 F7I       0.109500
@<TRIPOS>BOND
     1     1    25 2   
     2     1    29 1   
     3     1    31 1   
     4     2     3 1   
     5     2     5 2   
     6     2    32 1   
     7     3    28 1   
     8     3    31 2   
     9     4     7 1   
    10     4    28 1   
    11     4    33 1   
    12     4    34 1   
    13     5    29 1   
    14     5    35 1   
    15     6    25 1   
    16     6    30 2   
    17     6    36 1   
    18     7    18 1   
    19     7    37 1   
    20     7    38 1   
    21     8    10 ar  
    22     8    17 1   
    23     8    26 ar  
    24     9    10 ar  
    25     9    11 ar  
    26     9    25 1   
    27    10    39 1   
    28    11    27 ar  
    29    11    40 1   
    30    12    13 ar  
    31    12    20 ar  
    32    12    55 1   
    33    13    19 ar  
    34    13    41 1   
    35    14    15 1   
    36    14    21 1   
    37    14    42 1   
    38    14    43 1   
    39    15    16 ar  
    40    15    20 ar  
    41    16    19 ar  
    42    16    44 1   
    43    17    23 1   
    44    18    24 1   
    45    19    45 1   
    46    20    46 1   
    47    21    47 1   
    48    21    54 1   
    49    22    54 2   
    50    23    24 1   
    51    23    48 1   
    52    23    49 1   
    53    24    50 1   
    54    24    51 1   
    55    26    27 ar  
    56    26    54 1   
    57    27    52 1   
    58    28    53 1   
    59    29    30 1   
@<TRIPOS>SUBSTRUCTURE
     1 F7I         1 TEMP              0 ****  ****    0 ROOT
