@<TRIPOS>MOLECULE
F7J
   67    71     1     0     0
SMALL
No Charge or Current Charge


@<TRIPOS>ATOM
      1 N3          -3.6680    -0.3200    -0.1200 ns         1 F7J      -0.161000
      2 C4          -2.9280    -2.6370    -0.5790 ca         1 F7J      -0.078000
      3 N2           4.6730     0.8110     0.5410 n          1 F7J      -0.405800
      4 C7          -0.2600    -1.8340    -0.4180 ca         1 F7J      -0.081800
      5 C6          -0.5790    -3.1430    -0.6790 ca         1 F7J      -0.046200
      6 C9           1.7080    -3.0600    -0.6830 cc         1 F7J      -0.154100
      7 C13          3.4960     0.7430     1.4590 c6         1 F7J       0.093500
      8 C20          9.3750     1.7030    -0.1930 c5         1 F7J      -0.080900
      9 C21          8.2860     1.6920     0.9110 c5         1 F7J      -0.068400
     10 C8           1.2060    -1.7840    -0.4340 cd         1 F7J      -0.135400
     11 C18          7.2040     2.6060    -0.9900 c5         1 F7J      -0.068400
     12 C16          5.7110     1.7150     0.8760 c          1 F7J       0.611100
     13 C19          8.7080     2.4710    -1.3810 c5         1 F7J      -0.080900
     14 C26         -7.3720     3.2130     0.2670 ca         1 F7J      -0.055000
     15 C2          -1.2660    -0.8570    -0.2010 ca         1 F7J      -0.031300
     16 C3          -2.6270    -1.2800    -0.2880 ca         1 F7J      -0.080000
     17 C5          -1.9040    -3.5800    -0.7670 ca         1 F7J      -0.120000
     18 N1           0.5820    -3.8790    -0.8330 na         1 F7J      -0.082700
     19 C10          0.5660    -5.3240    -1.1130 c3         1 F7J       0.064900
     20 C11          2.1470    -0.5980    -0.2370 c6         1 F7J       0.015500
     21 C12          2.5870    -0.4880     1.2360 c6         1 F7J      -0.098900
     22 C14          4.3160     0.5680    -0.8960 c6         1 F7J       0.093500
     23 C15          3.4190    -0.6720    -1.1130 c6         1 F7J      -0.098900
     24 O1           5.5840     2.5520     1.7630 o          1 F7J      -0.605100
     25 C17          7.0130     1.4680     0.0520 c5         1 F7J      -0.148700
     26 C22         -5.0180    -0.4470     0.1940 c          1 F7J       0.613700
     27 O2          -5.5450    -1.5220     0.4600 o          1 F7J      -0.575100
     28 C23         -5.8170     0.8430     0.2120 ca         1 F7J      -0.156600
     29 C24         -5.2340     2.0990    -0.0940 ca         1 F7J      -0.070000
     30 C25         -6.0090     3.2700    -0.0650 ca         1 F7J      -0.123000
     31 C27         -7.9670     1.9760     0.5720 ca         1 F7J      -0.024000
     32 C28         -7.1920     0.8000     0.5440 ca         1 F7J      -0.021000
     33 C29         -9.3610     1.9120     0.9120 cg         1 F7J       0.320000
     34 N4         -10.4940     1.8500     1.1900 n1         1 F7J      -0.443000
     35 H28         -3.3680     0.6340    -0.2660 hn         1 F7J       0.155000
     36 H4          -3.9550    -2.9750    -0.6800 ha         1 F7J       0.123000
     37 H6           2.7210    -3.4380    -0.7640 h4         1 F7J       0.211000
     38 H14          3.8480     0.7320     2.5010 h1         1 F7J       0.056200
     39 H13          2.8980     1.6570     1.3300 h1         1 F7J       0.056200
     40 H25         10.3000     2.1830     0.1450 hc         1 F7J       0.042200
     41 H24          9.6370     0.6800    -0.4910 hc         1 F7J       0.042200
     42 H26          8.4450     0.8950     1.6470 hc         1 F7J       0.053200
     43 H27          8.2640     2.6440     1.4570 hc         1 F7J       0.053200
     44 H20          7.0060     3.5910    -0.5490 hc         1 F7J       0.053200
     45 H21          6.5390     2.5040    -1.8550 hc         1 F7J       0.053200
     46 H23          9.1650     3.4550    -1.5380 hc         1 F7J       0.042200
     47 H22          8.8280     1.9140    -2.3180 hc         1 F7J       0.042200
     48 H31         -7.9620     4.1280     0.2850 ha         1 F7J       0.129000
     49 H3          -0.5380     1.1160    -0.7670 hc         1 F7J       0.044033
     50 H2          -1.7530     1.1780     0.5090 hc         1 F7J       0.044033
     51 H1          -0.1420     0.6500     0.9020 hc         1 F7J       0.044033
     52 H5          -2.1450    -4.6170    -0.9880 ha         1 F7J       0.119000
     53 H9           0.0480    -5.5090    -2.0620 h1         1 F7J       0.050367
     54 H8           1.5940    -5.7000    -1.1850 h1         1 F7J       0.050367
     55 H7           0.0460    -5.8500    -0.3030 h1         1 F7J       0.050367
     56 H10          1.6330     0.3250    -0.5240 hc         1 F7J       0.050700
     57 H12          3.1270    -1.3980     1.5320 hc         1 F7J       0.051700
     58 H11          1.7100    -0.4230     1.8950 hc         1 F7J       0.051700
     59 H15          3.7900     1.4570    -1.2740 h1         1 F7J       0.056200
     60 H16          5.2100     0.4470    -1.5190 h1         1 F7J       0.056200
     61 H18          4.0050    -1.5690    -0.8740 hc         1 F7J       0.051700
     62 H17          3.1420    -0.7460    -2.1740 hc         1 F7J       0.051700
     63 H19          7.0050     0.4860    -0.4340 hc         1 F7J       0.055700
     64 H29         -4.1830     2.1880    -0.3590 ha         1 F7J       0.118000
     65 H30         -5.5510     4.2290    -0.3020 ha         1 F7J       0.124000
     66 H32         -7.6660    -0.1510     0.7830 ha         1 F7J       0.149000
     67 C1          -0.9100     0.5970     0.1240 c3         1 F7J      -0.047800
@<TRIPOS>BOND
     1     1    16 1   
     2     1    26 1   
     3     1    35 1   
     4     2    16 ar  
     5     2    17 ar  
     6     2    36 1   
     7     3     7 1   
     8     3    12 1   
     9     3    22 1   
    10     4     5 ar  
    11     4    10 1   
    12     4    15 ar  
    13     5    17 ar  
    14     5    18 1   
    15     6    10 2   
    16     6    18 1   
    17     6    37 1   
    18     7    21 1   
    19     7    38 1   
    20     7    39 1   
    21     8     9 1   
    22     8    13 1   
    23     8    40 1   
    24     8    41 1   
    25     9    25 1   
    26     9    42 1   
    27     9    43 1   
    28    10    20 1   
    29    11    13 1   
    30    11    25 1   
    31    11    44 1   
    32    11    45 1   
    33    12    24 2   
    34    12    25 1   
    35    13    46 1   
    36    13    47 1   
    37    14    30 ar  
    38    14    31 ar  
    39    14    48 1   
    40    15    16 ar  
    41    15    67 1   
    42    17    52 1   
    43    18    19 1   
    44    19    53 1   
    45    19    54 1   
    46    19    55 1   
    47    20    21 1   
    48    20    23 1   
    49    20    56 1   
    50    21    57 1   
    51    21    58 1   
    52    22    23 1   
    53    22    59 1   
    54    22    60 1   
    55    23    61 1   
    56    23    62 1   
    57    25    63 1   
    58    26    27 2   
    59    26    28 1   
    60    28    29 ar  
    61    28    32 ar  
    62    29    30 ar  
    63    29    64 1   
    64    30    65 1   
    65    31    32 ar  
    66    31    33 1   
    67    32    66 1   
    68    33    34 3   
    69    49    67 1   
    70    50    67 1   
    71    51    67 1   
@<TRIPOS>SUBSTRUCTURE
     1 F7J         1 TEMP              0 ****  ****    0 ROOT
