@<TRIPOS>MOLECULE
F7J
   67    71     1     0     0
SMALL
abcg2


@<TRIPOS>ATOM
      1 N3          -3.6550    -0.2380    -0.5660 ns         1 F7J      -0.161000
      2 C4          -2.7160    -2.4570    -0.7750 ca         1 F7J      -0.078000
      3 N2           4.4780     1.4320     0.4680 n          1 F7J      -0.405800
      4 C7          -0.1430    -1.4010    -0.5870 ca         1 F7J      -0.081800
      5 C6          -0.3770    -2.7850    -0.7620 ca         1 F7J      -0.046200
      6 C9           1.8140    -2.4820    -0.7360 cc         1 F7J      -0.154100
      7 C13          3.2620     1.5420     1.2580 c6         1 F7J       0.093500
      8 C20          9.1980     0.5840    -0.1250 c5         1 F7J      -0.080900
      9 C21          8.0720     0.3460     0.8770 c5         1 F7J      -0.068400
     10 C8           1.2870    -1.2290    -0.5780 cd         1 F7J      -0.135400
     11 C18          7.4460     2.2870    -0.4050 c5         1 F7J      -0.068400
     12 C16          5.6710     1.2070     1.0650 c          1 F7J       0.611100
     13 C19          8.9460     2.0070    -0.6490 c5         1 F7J      -0.080900
     14 C26         -8.0370     2.2260    -0.0680 ca         1 F7J      -0.055000
     15 C2          -1.2430    -0.5240    -0.4730 ca         1 F7J      -0.031300
     16 C3          -2.5120    -1.0780    -0.5920 ca         1 F7J      -0.080000
     17 C5          -1.6580    -3.3300    -0.8480 ca         1 F7J      -0.120000
     18 N1           0.8250    -3.4170    -0.8450 na         1 F7J      -0.082700
     19 C10          1.0120    -4.8350    -1.0280 c3         1 F7J       0.064900
     20 C11          2.0910     0.0260    -0.3980 c6         1 F7J       0.015500
     21 C12          2.4030     0.2950     1.0810 c6         1 F7J      -0.098900
     22 C14          4.1990     1.2810    -0.9490 c6         1 F7J       0.093500
     23 C15          3.3930     0.0140    -1.2040 c6         1 F7J      -0.098900
     24 O1           5.7950     1.2320     2.2850 o          1 F7J      -0.605100
     25 C17          6.8740     0.9740     0.1730 c5         1 F7J      -0.148700
     26 C22         -4.6040    -0.3090     0.3890 c          1 F7J       0.613700
     27 O2          -4.5320    -1.0460     1.3570 o          1 F7J      -0.575100
     28 C23         -5.7830     0.5950     0.1960 ca         1 F7J      -0.156600
     29 C24         -6.2270     0.9970    -1.0620 ca         1 F7J      -0.070000
     30 C25         -7.3490     1.8040    -1.1910 ca         1 F7J      -0.123000
     31 C27         -7.5960     1.8190     1.1920 ca         1 F7J      -0.024000
     32 C28         -6.4810     0.9980     1.3270 ca         1 F7J      -0.021000
     33 C29         -8.3000     2.2460     2.3580 cg         1 F7J       0.320000
     34 N4          -8.8700     2.5920     3.2980 n1         1 F7J      -0.443000
     35 H28         -3.7180     0.4900    -1.2600 hn         1 F7J       0.155000
     36 H4          -3.7280    -2.8290    -0.8730 ha         1 F7J       0.123000
     37 H6           2.8480    -2.7880    -0.7860 h4         1 F7J       0.211000
     38 H14          3.5150     1.6950     2.3030 h1         1 F7J       0.056200
     39 H13          2.7130     2.4290     0.9230 h1         1 F7J       0.056200
     40 H25         10.1900     0.4660     0.3150 hc         1 F7J       0.042200
     41 H24          9.1230    -0.1390    -0.9420 hc         1 F7J       0.042200
     42 H26          7.9200    -0.7080     1.1130 hc         1 F7J       0.053200
     43 H27          8.2830     0.8690     1.8120 hc         1 F7J       0.053200
     44 H20          7.3230     3.0930     0.3220 hc         1 F7J       0.053200
     45 H21          6.9250     2.5980    -1.3100 hc         1 F7J       0.053200
     46 H23          9.5560     2.7290    -0.1060 hc         1 F7J       0.042200
     47 H22          9.2100     2.1030    -1.7030 hc         1 F7J       0.042200
     48 H31         -8.9100     2.8570    -0.1620 ha         1 F7J       0.129000
     49 H3          -0.7290     1.4580    -1.1530 hc         1 F7J       0.044033
     50 H2          -1.9750     1.4280     0.0840 hc         1 F7J       0.044033
     51 H1          -0.3040     1.1360     0.5200 hc         1 F7J       0.044033
     52 H5          -1.8200    -4.3920    -0.9830 ha         1 F7J       0.119000
     53 H9           0.4890    -5.1840    -1.9190 h1         1 F7J       0.050367
     54 H8           2.0710    -5.0420    -1.1510 h1         1 F7J       0.050367
     55 H7           0.6470    -5.3960    -0.1670 h1         1 F7J       0.050367
     56 H10          1.5070     0.8710    -0.7760 hc         1 F7J       0.050700
     57 H12          2.9310    -0.5670     1.4990 hc         1 F7J       0.051700
     58 H11          1.4770     0.4040     1.6520 hc         1 F7J       0.051700
     59 H15          3.6280     2.1560    -1.2780 h1         1 F7J       0.056200
     60 H16          5.1120     1.2780    -1.5370 h1         1 F7J       0.056200
     61 H18          4.0080    -0.8500    -0.9360 hc         1 F7J       0.051700
     62 H17          3.1730    -0.0680    -2.2710 hc         1 F7J       0.051700
     63 H19          6.6020     0.3110    -0.6540 hc         1 F7J       0.055700
     64 H29         -5.7190     0.6680    -1.9590 ha         1 F7J       0.118000
     65 H30         -7.6890     2.0990    -2.1740 ha         1 F7J       0.124000
     66 H32         -6.1570     0.6850     2.3100 ha         1 F7J       0.149000
     67 C1          -1.0560     0.9480    -0.2450 c3         1 F7J      -0.047800
@<TRIPOS>BOND
     1     1    16 1   
     2     1    26 1   
     3     1    35 1   
     4     2    16 ar  
     5     2    17 ar  
     6     2    36 1   
     7     3     7 1   
     8     3    12 1   
     9     3    22 1   
    10     4     5 ar  
    11     4    10 1   
    12     4    15 ar  
    13     5    17 ar  
    14     5    18 1   
    15     6    10 2   
    16     6    18 1   
    17     6    37 1   
    18     7    21 1   
    19     7    38 1   
    20     7    39 1   
    21     8     9 1   
    22     8    13 1   
    23     8    40 1   
    24     8    41 1   
    25     9    25 1   
    26     9    42 1   
    27     9    43 1   
    28    10    20 1   
    29    11    13 1   
    30    11    25 1   
    31    11    44 1   
    32    11    45 1   
    33    12    24 2   
    34    12    25 1   
    35    13    46 1   
    36    13    47 1   
    37    14    30 ar  
    38    14    31 ar  
    39    14    48 1   
    40    15    16 ar  
    41    15    67 1   
    42    17    52 1   
    43    18    19 1   
    44    19    53 1   
    45    19    54 1   
    46    19    55 1   
    47    20    21 1   
    48    20    23 1   
    49    20    56 1   
    50    21    57 1   
    51    21    58 1   
    52    22    23 1   
    53    22    59 1   
    54    22    60 1   
    55    23    61 1   
    56    23    62 1   
    57    25    63 1   
    58    26    27 2   
    59    26    28 1   
    60    28    29 ar  
    61    28    32 ar  
    62    29    30 ar  
    63    29    64 1   
    64    30    65 1   
    65    31    32 ar  
    66    31    33 1   
    67    32    66 1   
    68    33    34 3   
    69    49    67 1   
    70    50    67 1   
    71    51    67 1   
@<TRIPOS>SUBSTRUCTURE
     1 F7J         1 TEMP              0 ****  ****    0 ROOT
