@<TRIPOS>MOLECULE
F7L
   38    39     1     0     0
SMALL
abcg2


@<TRIPOS>ATOM
      1 O1          -1.4700    -0.9590     0.9600 oh         1 F7L      -0.698000
      2 C2          -1.5710     0.0400    -0.0300 c3         1 F7L       0.166300
      3 C3          -0.3670     0.9720     0.0030 c3         1 F7L       0.129600
      4 O4           0.8060     0.2140    -0.1360 os         1 F7L      -0.442000
      5 C5           1.9680     0.9830    -0.0410 c3         1 F7L       0.213900
      6 C6           3.1730     0.0870    -0.1340 ca         1 F7L      -0.123300
      7 C7           3.0860    -1.2910    -0.3020 ca         1 F7L      -0.059000
      8 C8           4.2310    -2.0760    -0.3790 ca         1 F7L      -0.129000
      9 C9           5.4860    -1.4940    -0.2900 ca         1 F7L      -0.085000
     10 C10          5.6000    -0.1200    -0.1210 ca         1 F7L      -0.152000
     11 C11          4.4460     0.6320    -0.0490 ca         1 F7L       0.165000
     12 F12          4.5540     1.9650     0.1140 f          1 F7L      -0.187000
     13 C13         -2.8530     0.8610     0.0620 c3         1 F7L       0.140800
     14 N14         -4.0570     0.1290    -0.2590 n3         1 F7L      -0.711600
     15 C15         -5.1910     1.0060    -0.5010 c5         1 F7L       0.156800
     16 C16         -6.3760     0.0500    -0.5790 c5         1 F7L      -0.079400
     17 C17         -5.9680    -1.1210     0.3380 c5         1 F7L      -0.079400
     18 C18         -4.5290    -0.7990     0.7590 c5         1 F7L       0.156800
     19 HO1         -1.5270    -0.5380     1.8250 ho         1 F7L       0.493000
     20 H2          -1.5760    -0.4910    -0.9880 h1         1 F7L       0.099700
     21 H3          -0.4520     1.7120    -0.8060 h1         1 F7L       0.023200
     22 H3A         -0.3570     1.5360     0.9500 h1         1 F7L       0.023200
     23 H5           2.0050     1.7400    -0.8390 h1         1 F7L       0.035200
     24 H5A          1.9920     1.5370     0.9090 h1         1 F7L       0.035200
     25 H7           2.1150    -1.7600    -0.3710 ha         1 F7L       0.140000
     26 H8           4.1370    -3.1460    -0.5080 ha         1 F7L       0.119000
     27 H9           6.3790    -2.1020    -0.3510 ha         1 F7L       0.117000
     28 H10          6.5670     0.3600    -0.0450 ha         1 F7L       0.130000
     29 H13         -2.9140     1.3310     1.0630 h1         1 F7L       0.030700
     30 H13A        -2.7720     1.6840    -0.6530 h1         1 F7L       0.030700
     31 H15         -5.3340     1.7240     0.3250 h1         1 F7L       0.037450
     32 H15A        -5.0460     1.5890    -1.4140 h1         1 F7L       0.037450
     33 H16         -7.3030     0.5300    -0.2660 hc         1 F7L       0.047200
     34 H16A        -6.5220    -0.2950    -1.6030 hc         1 F7L       0.047200
     35 H17         -6.6170    -1.2090     1.2090 hc         1 F7L       0.047200
     36 H17A        -6.0180    -2.0700    -0.1960 hc         1 F7L       0.047200
     37 H18         -3.8990    -1.6840     0.8180 h1         1 F7L       0.037450
     38 H18A        -4.5230    -0.3280     1.7570 h1         1 F7L       0.037450
@<TRIPOS>BOND
     1     1     2 1   
     2     1    19 1   
     3     2     3 1   
     4     2    13 1   
     5     2    20 1   
     6     3     4 1   
     7     3    21 1   
     8     3    22 1   
     9     4     5 1   
    10     5     6 1   
    11     5    23 1   
    12     5    24 1   
    13     6     7 ar  
    14     6    11 ar  
    15     7     8 ar  
    16     7    25 1   
    17     8     9 ar  
    18     8    26 1   
    19     9    10 ar  
    20     9    27 1   
    21    10    11 ar  
    22    10    28 1   
    23    11    12 1   
    24    13    14 1   
    25    13    29 1   
    26    13    30 1   
    27    14    15 1   
    28    14    18 1   
    29    15    16 1   
    30    15    31 1   
    31    15    32 1   
    32    16    17 1   
    33    16    33 1   
    34    16    34 1   
    35    17    18 1   
    36    17    35 1   
    37    17    36 1   
    38    18    37 1   
    39    18    38 1   
@<TRIPOS>SUBSTRUCTURE
     1 F7L         1 TEMP              0 ****  ****    0 ROOT
