@<TRIPOS>MOLECULE
F7L
   38    39     1     0     0
SMALL
No Charge or Current Charge


@<TRIPOS>ATOM
      1 O1          -1.2830    -0.4180     1.1080 oh         1 F7L      -0.698000
      2 C2          -1.5980     0.1700    -0.1730 c3         1 F7L       0.166300
      3 C3          -0.3910     1.0360    -0.6150 c3         1 F7L       0.129600
      4 O4           0.8160     0.2950    -0.3440 os         1 F7L      -0.442000
      5 C5           2.0260     0.9750    -0.7120 c3         1 F7L       0.213900
      6 C6           3.2040     0.0760    -0.3640 ca         1 F7L      -0.123300
      7 C7           3.6170    -0.9200    -1.2710 ca         1 F7L      -0.059000
      8 C8           4.7050    -1.7570    -0.9610 ca         1 F7L      -0.129000
      9 C9           5.3870    -1.6060     0.2580 ca         1 F7L      -0.085000
     10 C10          4.9780    -0.6170     1.1690 ca         1 F7L      -0.152000
     11 C11          3.8930     0.2190     0.8590 ca         1 F7L       0.165000
     12 F12          3.5160     1.1630     1.7520 f          1 F7L      -0.187000
     13 C13         -2.9200     0.9980    -0.1240 c3         1 F7L       0.140800
     14 N14         -4.1870     0.2160    -0.1550 n3         1 F7L      -0.711600
     15 C15         -5.4180     1.0300    -0.1900 c5         1 F7L       0.156800
     16 C16         -6.5040    -0.0740    -0.1700 c5         1 F7L      -0.079400
     17 C17         -5.8770    -1.1840     0.7310 c5         1 F7L      -0.079400
     18 C18         -4.4260    -0.6890     0.9920 c5         1 F7L       0.156800
     19 HO1         -0.3000    -0.5030     1.0890 ho         1 F7L       0.493000
     20 H2          -1.7250    -0.6160    -0.9320 h1         1 F7L       0.099700
     21 H3          -0.4780     1.2680    -1.6850 h1         1 F7L       0.023200
     22 H3A         -0.3940     1.9820    -0.0560 h1         1 F7L       0.023200
     23 H5           2.0360     1.1870    -1.7900 h1         1 F7L       0.035200
     24 H5A          2.1110     1.9340    -0.1840 h1         1 F7L       0.035200
     25 H7           3.0930    -1.0470    -2.2170 ha         1 F7L       0.140000
     26 H8           5.0170    -2.5240    -1.6670 ha         1 F7L       0.119000
     27 H9           6.2270    -2.2550     0.4970 ha         1 F7L       0.117000
     28 H10          5.5010    -0.4960     2.1140 ha         1 F7L       0.130000
     29 H13         -2.8980     1.6420     0.7660 h1         1 F7L       0.030700
     30 H13A        -2.9160     1.6700    -0.9930 h1         1 F7L       0.030700
     31 H15         -5.4950     1.6820     0.6920 h1         1 F7L       0.037450
     32 H15A        -5.4850     1.6580    -1.0900 h1         1 F7L       0.037450
     33 H16         -7.4590     0.2960     0.2180 hc         1 F7L       0.047200
     34 H16A        -6.6910    -0.4540    -1.1820 hc         1 F7L       0.047200
     35 H17         -6.4260    -1.3180     1.6700 hc         1 F7L       0.047200
     36 H17A        -5.8780    -2.1520     0.2160 hc         1 F7L       0.047200
     37 H18         -3.7150    -1.5250     1.0310 h1         1 F7L       0.037450
     38 H18A        -4.3640    -0.1440     1.9450 h1         1 F7L       0.037450
@<TRIPOS>BOND
     1     1     2 1   
     2     1    19 1   
     3     2     3 1   
     4     2    13 1   
     5     2    20 1   
     6     3     4 1   
     7     3    21 1   
     8     3    22 1   
     9     4     5 1   
    10     5     6 1   
    11     5    23 1   
    12     5    24 1   
    13     6     7 ar  
    14     6    11 ar  
    15     7     8 ar  
    16     7    25 1   
    17     8     9 ar  
    18     8    26 1   
    19     9    10 ar  
    20     9    27 1   
    21    10    11 ar  
    22    10    28 1   
    23    11    12 1   
    24    13    14 1   
    25    13    29 1   
    26    13    30 1   
    27    14    15 1   
    28    14    18 1   
    29    15    16 1   
    30    15    31 1   
    31    15    32 1   
    32    16    17 1   
    33    16    33 1   
    34    16    34 1   
    35    17    18 1   
    36    17    35 1   
    37    17    36 1   
    38    18    37 1   
    39    18    38 1   
@<TRIPOS>SUBSTRUCTURE
     1 F7L         1 TEMP              0 ****  ****    0 ROOT
