@<TRIPOS>MOLECULE
F7M
   66    70     1     0     0
SMALL
No Charge or Current Charge


@<TRIPOS>ATOM
      1 C11          1.5790    -2.7570     0.7130 cc         1 F7M      -0.142100
      2 C10          1.6630    -0.2430     0.2030 c6         1 F7M       0.018500
      3 C6          -0.4960    -1.7800     0.3950 ca         1 F7M      -0.067800
      4 C7           0.9320    -1.5540     0.4340 cd         1 F7M      -0.144400
      5 C9          -1.5640    -0.9080     0.1490 ca         1 F7M      -0.117000
      6 C1           6.5640     1.2020    -0.0800 c6         1 F7M      -0.136700
      7 O3           5.5970     1.2120    -2.2830 o          1 F7M      -0.608100
      8 C4          -5.3270    -0.6670    -0.1310 c          1 F7M       0.513600
      9 O5          -5.9010    -1.7390     0.0570 o          1 F7M      -0.588100
     10 C8          -0.6880    -3.1070     0.6540 ca         1 F7M      -0.064200
     11 N12          0.5480    -3.7040     0.8480 na         1 F7M      -0.085700
     12 C13         -1.9740    -3.6640     0.6890 ca         1 F7M      -0.103000
     13 C14         -2.8780    -1.4280     0.1750 ca         1 F7M      -0.050000
     14 C15          2.8920    -0.0630     1.1390 c6         1 F7M      -0.096400
     15 C16          2.0900    -0.1140    -1.2830 c6         1 F7M      -0.096400
     16 C17         -3.0740    -2.8120     0.4470 ca         1 F7M      -0.107000
     17 N18         -3.9430    -0.5170    -0.0780 ns         1 F7M      -0.122000
     18 C19          3.6200     1.2640     0.8250 c6         1 F7M       0.094500
     19 C20          2.8700     1.2010    -1.5280 c6         1 F7M       0.094500
     20 N21          4.0340     1.2940    -0.6060 n          1 F7M      -0.408800
     21 C22         -6.0860     0.6240    -0.4450 ca         1 F7M       0.287500
     22 N23         -5.3850     1.7830    -0.6430 nb         1 F7M      -0.668000
     23 C24         -6.0670     2.9180    -0.9200 ca         1 F7M       0.341900
     24 C25         -7.4660     2.9630    -1.0150 ca         1 F7M      -0.113000
     25 C26         -8.2010     1.7820    -0.8140 ca         1 F7M       0.020000
     26 C27         -7.4960     0.5990    -0.5260 ca         1 F7M      -0.071000
     27 C28         -9.6350     1.7830    -0.9010 cg         1 F7M       0.312000
     28 N29        -10.8010     1.7740    -0.9700 n1         1 F7M      -0.422000
     29 C30          7.8440     0.4930    -0.6100 c6         1 F7M      -0.066900
     30 C31          8.9530     0.4620     0.4710 c6         1 F7M      -0.075400
     31 C32          9.2630     1.8840     1.0020 c6         1 F7M      -0.075400
     32 C33          7.9880     2.5700     1.5530 c6         1 F7M      -0.075400
     33 C34          6.8680     2.6200     0.4840 c6         1 F7M      -0.066900
     34 C35          0.6870    -5.1380     1.1430 c3         1 F7M       0.065900
     35 H1           2.6290    -3.0070     0.8160 h4         1 F7M       0.211000
     36 H2           0.9680     0.5800     0.4210 hc         1 F7M       0.049700
     37 H3          -1.3820     0.1440    -0.0580 ha         1 F7M       0.115000
     38 H4           6.2220     0.6310     0.7900 hc         1 F7M       0.054700
     39 H5          -2.1270    -4.7210     0.8950 ha         1 F7M       0.118000
     40 H6           2.5700    -0.0720     2.1890 hc         1 F7M       0.050950
     41 H7           3.6010    -0.8920     1.0150 hc         1 F7M       0.050950
     42 H8           2.7200    -0.9690    -1.5660 hc         1 F7M       0.050950
     43 H9           1.2050    -0.1470    -1.9330 hc         1 F7M       0.050950
     44 H10         -4.0680    -3.2460     0.4750 ha         1 F7M       0.144000
     45 H11         -3.6390     0.4330    -0.2570 hn         1 F7M       0.178000
     46 H12          2.9330     2.1030     1.0090 h1         1 F7M       0.055200
     47 H13          4.4600     1.4020     1.5140 h1         1 F7M       0.055200
     48 H14          3.1860     1.2490    -2.5790 h1         1 F7M       0.055200
     49 H15          2.2050     2.0600    -1.3530 h1         1 F7M       0.055200
     50 H16         -5.4720     3.8180    -1.0710 h4         1 F7M       0.031100
     51 H17         -7.9610     3.9040    -1.2400 ha         1 F7M       0.141000
     52 H18         -8.0340    -0.3320    -0.3650 ha         1 F7M       0.163000
     53 H19          7.6030    -0.5330    -0.9220 hc         1 F7M       0.051200
     54 H20          8.2190     1.0130    -1.5020 hc         1 F7M       0.051200
     55 H21          8.6400    -0.1830     1.3050 hc         1 F7M       0.038200
     56 H22          9.8650     0.0120     0.0560 hc         1 F7M       0.038200
     57 H23         10.0260     1.8290     1.7910 hc         1 F7M       0.040700
     58 H24          9.6930     2.4940     0.1950 hc         1 F7M       0.040700
     59 H25          7.6310     2.0290     2.4390 hc         1 F7M       0.038200
     60 H26          8.2290     3.5890     1.8870 hc         1 F7M       0.038200
     61 H27          7.1730     3.2830    -0.3370 hc         1 F7M       0.051200
     62 H28          5.9640     3.0680     0.9190 hc         1 F7M       0.051200
     63 H29          0.1560    -5.3760     2.0730 h1         1 F7M       0.049367
     64 H30          0.2620    -5.7260     0.3200 h1         1 F7M       0.049367
     65 H31          1.7470    -5.3930     1.2580 h1         1 F7M       0.049367
     66 C2           5.3720     1.2110    -1.0780 c          1 F7M       0.607100
@<TRIPOS>BOND
     1     1     4 2   
     2     1    11 1   
     3     1    35 1   
     4     2     4 1   
     5     2    14 1   
     6     2    15 1   
     7     2    36 1   
     8     3     4 1   
     9     3     5 ar  
    10     3    10 ar  
    11     5    13 ar  
    12     5    37 1   
    13     6    29 1   
    14     6    33 1   
    15     6    38 1   
    16     6    66 1   
    17     7    66 2   
    18     8     9 2   
    19     8    17 1   
    20     8    21 1   
    21    10    11 1   
    22    10    12 ar  
    23    11    34 1   
    24    12    16 ar  
    25    12    39 1   
    26    13    16 ar  
    27    13    17 1   
    28    14    18 1   
    29    14    40 1   
    30    14    41 1   
    31    15    19 1   
    32    15    42 1   
    33    15    43 1   
    34    16    44 1   
    35    17    45 1   
    36    18    20 1   
    37    18    46 1   
    38    18    47 1   
    39    19    20 1   
    40    19    48 1   
    41    19    49 1   
    42    20    66 1   
    43    21    22 ar  
    44    21    26 ar  
    45    22    23 ar  
    46    23    24 ar  
    47    23    50 1   
    48    24    25 ar  
    49    24    51 1   
    50    25    26 ar  
    51    25    27 1   
    52    26    52 1   
    53    27    28 3   
    54    29    30 1   
    55    29    53 1   
    56    29    54 1   
    57    30    31 1   
    58    30    55 1   
    59    30    56 1   
    60    31    32 1   
    61    31    57 1   
    62    31    58 1   
    63    32    33 1   
    64    32    59 1   
    65    32    60 1   
    66    33    61 1   
    67    33    62 1   
    68    34    63 1   
    69    34    64 1   
    70    34    65 1   
@<TRIPOS>SUBSTRUCTURE
     1 F7M         1 TEMP              0 ****  ****    0 ROOT
