@<TRIPOS>MOLECULE
F7M
   66    70     1     0     0
SMALL
abcg2


@<TRIPOS>ATOM
      1 C11          1.4800    -2.7720     0.7370 cc         1 F7M      -0.142100
      2 C10          1.6890    -0.2560     0.2280 c6         1 F7M       0.018500
      3 C6          -0.4570    -1.7410     0.3380 ca         1 F7M      -0.067800
      4 C7           0.9560    -1.5430     0.4430 cd         1 F7M      -0.144400
      5 C9          -1.5310    -0.8900     0.0750 ca         1 F7M      -0.117000
      6 C1           6.4270     1.1580     0.0140 c6         1 F7M      -0.136700
      7 O3           5.5330     1.1530    -2.2010 o          1 F7M      -0.608100
      8 C4          -5.1790    -0.6270    -0.0730 c          1 F7M       0.513600
      9 O5          -5.7670    -1.6230     0.3160 o          1 F7M      -0.588100
     10 C8          -0.7060    -3.1080     0.5850 ca         1 F7M      -0.064200
     11 N12          0.4920    -3.7160     0.8240 na         1 F7M      -0.085700
     12 C13         -1.9970    -3.6270     0.5680 ca         1 F7M      -0.103000
     13 C14         -2.8210    -1.4010     0.0630 ca         1 F7M      -0.050000
     14 C15          2.8970    -0.0910     1.1510 c6         1 F7M      -0.096400
     15 C16          2.1180    -0.0810    -1.2350 c6         1 F7M      -0.096400
     16 C17         -3.0500    -2.7710     0.3050 ca         1 F7M      -0.107000
     17 N18         -3.8520    -0.4910    -0.2200 ns         1 F7M      -0.122000
     18 C19          3.6200     1.2190     0.8610 c6         1 F7M       0.094500
     19 C20          2.8910     1.2160    -1.4410 c6         1 F7M       0.094500
     20 N21          4.0240     1.2830    -0.5330 n          1 F7M      -0.408800
     21 C22         -5.9470     0.6140    -0.4430 ca         1 F7M       0.287500
     22 N23         -5.2610     1.6670    -0.8660 nb         1 F7M      -0.668000
     23 C24         -5.9100     2.7710    -1.1960 ca         1 F7M       0.341900
     24 C25         -7.2910     2.8810    -1.1200 ca         1 F7M      -0.113000
     25 C26         -8.0040     1.7750    -0.6740 ca         1 F7M       0.020000
     26 C27         -7.3290     0.6110    -0.3260 ca         1 F7M      -0.071000
     27 C28         -9.4300     1.8320    -0.5720 cg         1 F7M       0.312000
     28 N29        -10.5760     1.8780    -0.4890 n1         1 F7M      -0.422000
     29 C30          7.6830     0.5080    -0.5640 c6         1 F7M      -0.066900
     30 C31          8.8060     0.4990     0.4690 c6         1 F7M      -0.075400
     31 C32          9.1230     1.9070     0.9630 c6         1 F7M      -0.075400
     32 C33          7.8730     2.5890     1.5100 c6         1 F7M      -0.075400
     33 C34          6.7430     2.5860     0.4850 c6         1 F7M      -0.066900
     34 C35          0.6760    -5.1170     1.1060 c3         1 F7M       0.065900
     35 H1           2.5080    -3.0590     0.8980 h4         1 F7M       0.211000
     36 H2           0.9950     0.5630     0.4590 hc         1 F7M       0.049700
     37 H3          -1.3640     0.1650    -0.1140 ha         1 F7M       0.115000
     38 H4           6.1300     0.5650     0.8850 hc         1 F7M       0.054700
     39 H5          -2.1900    -4.6760     0.7550 ha         1 F7M       0.118000
     40 H6           2.5770    -0.1060     2.1950 hc         1 F7M       0.050950
     41 H7           3.5990    -0.9190     1.0150 hc         1 F7M       0.050950
     42 H8           2.7420    -0.9270    -1.5380 hc         1 F7M       0.050950
     43 H9           1.2390    -0.0860    -1.8850 hc         1 F7M       0.050950
     44 H10         -4.0510    -3.1680     0.2870 ha         1 F7M       0.144000
     45 H11         -3.5580     0.4260    -0.5320 hn         1 F7M       0.178000
     46 H12          2.9450     2.0590     1.0560 h1         1 F7M       0.055200
     47 H13          4.4680     1.3440     1.5260 h1         1 F7M       0.055200
     48 H14          3.2390     1.3030    -2.4660 h1         1 F7M       0.055200
     49 H15          2.2380     2.0740    -1.2430 h1         1 F7M       0.055200
     50 H16         -5.3150     3.6080    -1.5370 h4         1 F7M       0.031100
     51 H17         -7.7870     3.7990    -1.4010 ha         1 F7M       0.141000
     52 H18         -7.8590    -0.2620     0.0250 ha         1 F7M       0.163000
     53 H19          7.4650    -0.5120    -0.8870 hc         1 F7M       0.051200
     54 H20          8.0060     1.0580    -1.4510 hc         1 F7M       0.051200
     55 H21          8.5130    -0.1260     1.3190 hc         1 F7M       0.038200
     56 H22          9.6990     0.0390     0.0400 hc         1 F7M       0.038200
     57 H23          9.9020     1.8750     1.7280 hc         1 F7M       0.040700
     58 H24          9.5240     2.5010     0.1340 hc         1 F7M       0.040700
     59 H25          7.5410     2.0670     2.4140 hc         1 F7M       0.038200
     60 H26          8.0990     3.6150     1.8090 hc         1 F7M       0.038200
     61 H27          7.0340     3.1860    -0.3840 hc         1 F7M       0.051200
     62 H28          5.8560     3.0630     0.9080 hc         1 F7M       0.051200
     63 H29          0.1020    -5.4180     1.9820 h1         1 F7M       0.049367
     64 H30          0.3680    -5.7320     0.2600 h1         1 F7M       0.049367
     65 H31          1.7270    -5.3060     1.3040 h1         1 F7M       0.049367
     66 C2           5.2910     1.1830    -0.9990 c          1 F7M       0.607100
@<TRIPOS>BOND
     1     1     4 2   
     2     1    11 1   
     3     1    35 1   
     4     2     4 1   
     5     2    14 1   
     6     2    15 1   
     7     2    36 1   
     8     3     4 1   
     9     3     5 ar  
    10     3    10 ar  
    11     5    13 ar  
    12     5    37 1   
    13     6    29 1   
    14     6    33 1   
    15     6    38 1   
    16     6    66 1   
    17     7    66 2   
    18     8     9 2   
    19     8    17 1   
    20     8    21 1   
    21    10    11 1   
    22    10    12 ar  
    23    11    34 1   
    24    12    16 ar  
    25    12    39 1   
    26    13    16 ar  
    27    13    17 1   
    28    14    18 1   
    29    14    40 1   
    30    14    41 1   
    31    15    19 1   
    32    15    42 1   
    33    15    43 1   
    34    16    44 1   
    35    17    45 1   
    36    18    20 1   
    37    18    46 1   
    38    18    47 1   
    39    19    20 1   
    40    19    48 1   
    41    19    49 1   
    42    20    66 1   
    43    21    22 ar  
    44    21    26 ar  
    45    22    23 ar  
    46    23    24 ar  
    47    23    50 1   
    48    24    25 ar  
    49    24    51 1   
    50    25    26 ar  
    51    25    27 1   
    52    26    52 1   
    53    27    28 3   
    54    29    30 1   
    55    29    53 1   
    56    29    54 1   
    57    30    31 1   
    58    30    55 1   
    59    30    56 1   
    60    31    32 1   
    61    31    57 1   
    62    31    58 1   
    63    32    33 1   
    64    32    59 1   
    65    32    60 1   
    66    33    61 1   
    67    33    62 1   
    68    34    63 1   
    69    34    64 1   
    70    34    65 1   
@<TRIPOS>SUBSTRUCTURE
     1 F7M         1 TEMP              0 ****  ****    0 ROOT
