@<TRIPOS>MOLECULE
F7N
   68    71     1     0     0
SMALL
abcg2


@<TRIPOS>ATOM
      1 C4          -7.1730     0.8620     1.6920 c6         1 F7N       0.157600
      2 C5          -5.6670     0.8820     1.9100 c6         1 F7N      -0.140400
      3 C6          -4.9850     0.2520     0.7040 c6         1 F7N       0.110300
      4 C10          1.9930    -2.6310     2.0460 c6         1 F7N       0.086000
      5 C13          3.1380    -0.4520     0.7050 ca         1 F7N      -0.190300
      6 C17          5.0480     0.6180    -0.2570 ca         1 F7N      -0.257300
      7 C20         -1.7340    -2.2130    -1.1650 c5         1 F7N      -0.070400
      8 C21         -0.5290    -1.4200    -0.6000 c5         1 F7N      -0.108000
      9 C22         -1.1910    -0.2170     0.1420 c5         1 F7N      -0.097400
     10 C24          0.2340    -2.3150     0.4000 c          1 F7N       0.605100
     11 C1          -5.4360     0.9090    -0.5960 c6         1 F7N       0.119300
     12 C11          3.3080    -2.8920     1.3270 c6         1 F7N      -0.162700
     13 C12          1.7100    -0.4260     1.1920 c6         1 F7N       0.154300
     14 C14          3.8960    -1.6250     0.7720 ca         1 F7N       0.402300
     15 C16          5.7160    -0.5930    -0.1590 ca         1 F7N       0.413900
     16 C18          3.7350     0.6820     0.1860 ca         1 F7N      -0.018000
     17 C19         -2.9380    -1.7940    -0.3360 c5         1 F7N      -0.098400
     18 C2          -6.9620     0.8990    -0.6310 c6         1 F7N       0.127600
     19 C23         -2.6770    -0.3080    -0.1900 c5         1 F7N       0.089300
     20 C29          5.6970     1.8390    -0.8220 c3         1 F7N       0.368300
     21 F30          5.0190     2.3170    -1.8750 f          1 F7N      -0.107000
     22 F31          5.7490     2.8300     0.0780 f          1 F7N      -0.107000
     23 F32          6.9480     1.6110    -1.2300 f          1 F7N      -0.107000
     24 N15          5.1520    -1.6810     0.3430 nb         1 F7N      -0.665000
     25 N33         -3.5020     0.3590     0.8560 ny         1 F7N      -0.808000
     26 N9           1.1610    -1.7620     1.2260 n          1 F7N      -0.409800
     27 O28          0.0060    -3.5140     0.4620 o          1 F7N      -0.577100
     28 O3          -7.5280     1.5170     0.4950 os         1 F7N      -0.405000
     29 O7          -4.8820     2.1990    -0.6040 os         1 F7N      -0.478000
     30 H37         -7.5320    -0.1760     1.6850 h1         1 F7N       0.073700
     31 H38         -7.6770     1.3800     2.5080 h1         1 F7N       0.073700
     32 H39         -5.3270     1.9100     2.0560 hc         1 F7N       0.077700
     33 H40         -5.4240     0.3220     2.8160 hc         1 F7N       0.077700
     34 H41         -5.2200    -0.8140     0.6670 hx         1 F7N       0.104700
     35 H42         -4.3010     2.2010    -2.6010 h1         1 F7N       0.051700
     36 H43         -5.8380     3.0230    -2.2700 h1         1 F7N       0.051700
     37 H44         -4.3140     3.7610    -1.7580 h1         1 F7N       0.051700
     38 H45          1.4770    -3.5590     2.2690 h1         1 F7N       0.074700
     39 H46          2.1750    -2.1210     2.9950 h1         1 F7N       0.074700
     40 H55         -1.9070    -1.9310    -2.2050 hc         1 F7N       0.088200
     41 H56         -1.5740    -3.2870    -1.1540 hc         1 F7N       0.088200
     42 H58         -1.0670    -0.3120     1.2250 hc         1 F7N       0.067200
     43 H57         -0.7720     0.7500    -0.1370 hc         1 F7N       0.067200
     44 H62          0.2420    -2.7940    -2.9520 hc         1 F7N       0.044867
     45 H63          1.7090    -1.8680    -3.2470 hc         1 F7N       0.044867
     46 H61          1.5770    -2.8570    -1.8030 hc         1 F7N       0.044867
     47 H34         -5.0870     0.3270    -1.4610 h1         1 F7N       0.058700
     48 H47          4.0260    -3.3580     2.0030 hc         1 F7N       0.088200
     49 H48          3.1520    -3.6000     0.5070 hc         1 F7N       0.088200
     50 H49          1.6780    -0.0120     2.2050 h1         1 F7N       0.055200
     51 H50          1.1220     0.2480     0.5800 h1         1 F7N       0.055200
     52 H51          6.7410    -0.7010    -0.4920 h4         1 F7N       0.050100
     53 H52          3.1670     1.6050     0.1270 ha         1 F7N       0.127000
     54 H53         -3.8850    -2.0300    -0.8220 hc         1 F7N       0.071200
     55 H54         -2.9280    -2.2820     0.6430 hc         1 F7N       0.071200
     56 H36         -7.3260     1.4270    -1.5130 h1         1 F7N       0.074200
     57 H35         -7.2920    -0.1460    -0.7240 h1         1 F7N       0.074200
     58 H59         -2.8920     0.2050    -1.1290 hx         1 F7N       0.107700
     59 H60          1.2780    -0.4500    -1.3050 hc         1 F7N       0.058700
     60 H65         -0.9850    -0.5040    -3.3430 hc         1 F7N       0.044867
     61 H66         -0.6370     0.8510    -2.2680 hc         1 F7N       0.044867
     62 H64          0.5550     0.3270    -3.4390 hc         1 F7N       0.044867
     63 H67         -3.2530     1.3510     0.8880 hn         1 F7N       0.504000
     64 H68         -3.2440    -0.0180     1.7710 hn         1 F7N       0.504000
     65 C25          0.4350    -0.9900    -1.7430 c3         1 F7N      -0.053700
     66 C8          -4.8400     2.8150    -1.8720 c3         1 F7N       0.139900
     67 C26          1.0200    -2.1990    -2.4700 c3         1 F7N      -0.095600
     68 C27         -0.2060    -0.0300    -2.7450 c3         1 F7N      -0.095600
@<TRIPOS>BOND
     1     1     2 1   
     2     1    28 1   
     3     1    30 1   
     4     1    31 1   
     5     2     3 1   
     6     2    32 1   
     7     2    33 1   
     8     3    11 1   
     9     3    25 1   
    10     3    34 1   
    11     4    12 1   
    12     4    26 1   
    13     4    38 1   
    14     4    39 1   
    15     5    13 1   
    16     5    14 ar  
    17     5    16 ar  
    18     6    15 ar  
    19     6    16 ar  
    20     6    20 1   
    21     7     8 1   
    22     7    17 1   
    23     7    40 1   
    24     7    41 1   
    25     8     9 1   
    26     8    10 1   
    27     8    65 1   
    28     9    19 1   
    29     9    42 1   
    30     9    43 1   
    31    10    26 1   
    32    10    27 2   
    33    11    18 1   
    34    11    29 1   
    35    11    47 1   
    36    12    14 1   
    37    12    48 1   
    38    12    49 1   
    39    13    26 1   
    40    13    50 1   
    41    13    51 1   
    42    14    24 ar  
    43    15    24 ar  
    44    15    52 1   
    45    16    53 1   
    46    17    19 1   
    47    17    54 1   
    48    17    55 1   
    49    18    28 1   
    50    18    56 1   
    51    18    57 1   
    52    19    25 1   
    53    19    58 1   
    54    20    21 1   
    55    20    22 1   
    56    20    23 1   
    57    25    63 1   
    58    25    64 1   
    59    29    66 1   
    60    35    66 1   
    61    36    66 1   
    62    37    66 1   
    63    44    67 1   
    64    45    67 1   
    65    46    67 1   
    66    59    65 1   
    67    60    68 1   
    68    61    68 1   
    69    62    68 1   
    70    65    67 1   
    71    65    68 1   
@<TRIPOS>SUBSTRUCTURE
     1 F7N         1 TEMP              0 ****  ****    0 ROOT
