@<TRIPOS>MOLECULE
F7N
   68    71     1     0     0
SMALL
No Charge or Current Charge


@<TRIPOS>ATOM
      1 C4          -6.9320     1.4580     1.7580 c6         1 F7N       0.157600
      2 C5          -5.4200     1.1410     1.8300 c6         1 F7N      -0.140400
      3 C6          -4.9670     0.4050     0.5500 c6         1 F7N       0.110300
      4 C10          2.5590    -2.8960     1.2320 c6         1 F7N       0.086000
      5 C13          3.2450    -0.1950     0.6320 ca         1 F7N      -0.190300
      6 C17          4.9470     1.5240     0.6320 ca         1 F7N      -0.257300
      7 C20         -2.0470    -2.8580    -0.7630 c5         1 F7N      -0.070400
      8 C21         -0.7130    -1.9900    -0.6680 c5         1 F7N      -0.108000
      9 C22         -1.2600    -0.5900    -0.1610 c5         1 F7N      -0.097400
     10 C24          0.1930    -2.6050     0.4890 c          1 F7N       0.605100
     11 C1          -5.3540     1.2160    -0.7180 c6         1 F7N       0.119300
     12 C11          3.9670    -2.6210     0.6780 c6         1 F7N      -0.162700
     13 C12          1.7760    -0.6200     0.6100 c6         1 F7N       0.154300
     14 C14          4.2800    -1.1420     0.6650 ca         1 F7N       0.402300
     15 C16          5.9090     0.4990     0.6710 ca         1 F7N       0.413900
     16 C18          3.5830     1.1690     0.6180 ca         1 F7N      -0.018000
     17 C19         -3.0570    -2.1040     0.1310 c5         1 F7N      -0.098400
     18 C2          -6.8740     1.5610    -0.6650 c6         1 F7N       0.127600
     19 C23         -2.7800    -0.6890    -0.3980 c5         1 F7N       0.089300
     20 C29          5.4010     2.9790     0.6290 c3         1 F7N       0.368300
     21 F30          4.4430     3.8230     0.1810 f          1 F7N      -0.107000
     22 F31          5.7390     3.3900     1.8710 f          1 F7N      -0.107000
     23 F32          6.4830     3.1690    -0.1590 f          1 F7N      -0.107000
     24 N15          5.5880    -0.8140     0.6850 nb         1 F7N      -0.665000
     25 N33         -3.4280     0.2790     0.5890 ny         1 F7N      -0.808000
     26 N9           1.5200    -2.0920     0.5350 n          1 F7N      -0.409800
     27 O28         -0.1310    -3.5400     1.2130 o          1 F7N      -0.577100
     28 O3          -7.2080     2.2350     0.5730 os         1 F7N      -0.405000
     29 O7          -4.5010     2.3900    -0.8170 os         1 F7N      -0.478000
     30 H37         -7.5220     0.5290     1.7350 h1         1 F7N       0.073700
     31 H38         -7.2390     2.0330     2.6440 h1         1 F7N       0.073700
     32 H39         -4.8630     2.0800     1.9440 hc         1 F7N       0.077700
     33 H40         -5.2090     0.5290     2.7180 hc         1 F7N       0.077700
     34 H41         -5.3820    -0.6100     0.5140 hx         1 F7N       0.104700
     35 H42         -4.4430     2.5760    -2.9090 h1         1 F7N       0.051700
     36 H43         -5.5890     3.6660    -2.0870 h1         1 F7N       0.051700
     37 H44         -3.8480     3.9840    -2.0040 h1         1 F7N       0.051700
     38 H45          2.3440    -3.9690     1.1250 h1         1 F7N       0.074700
     39 H46          2.5330    -2.6620     2.3070 h1         1 F7N       0.074700
     40 H55         -2.4370    -2.9130    -1.7840 hc         1 F7N       0.088200
     41 H56         -1.9210    -3.9040    -0.4610 hc         1 F7N       0.088200
     42 H58         -1.0420    -0.4420     0.9040 hc         1 F7N       0.067200
     43 H57         -0.8280     0.2690    -0.6870 hc         1 F7N       0.067200
     44 H62         -0.3000    -4.0160    -2.7080 hc         1 F7N       0.044867
     45 H63          1.1280    -3.2610    -3.4390 hc         1 F7N       0.044867
     46 H61          1.1870    -3.8090    -1.7600 hc         1 F7N       0.044867
     47 H34         -5.1660     0.5860    -1.5990 h1         1 F7N       0.058700
     48 H47          4.7110    -3.1650     1.2750 hc         1 F7N       0.088200
     49 H48          4.0400    -3.0070    -0.3470 hc         1 F7N       0.088200
     50 H49          1.2910    -0.2300     1.5160 h1         1 F7N       0.055200
     51 H50          1.3160    -0.1100    -0.2430 h1         1 F7N       0.055200
     52 H51          6.9740     0.7310     0.6940 h4         1 F7N       0.050100
     53 H52          2.8020     1.9270     0.5990 ha         1 F7N       0.127000
     54 H53         -4.0900    -2.4260    -0.0380 hc         1 F7N       0.071200
     55 H54         -2.8350    -2.2210     1.1990 hc         1 F7N       0.071200
     56 H36         -7.1570     2.2000    -1.5130 h1         1 F7N       0.074200
     57 H35         -7.4650     0.6370    -0.7420 h1         1 F7N       0.074200
     58 H59         -3.1010    -0.5050    -1.4300 hx         1 F7N       0.107700
     59 H60          0.9610    -1.3470    -1.9360 hc         1 F7N       0.058700
     60 H65         -1.6030    -1.8230    -3.5160 hc         1 F7N       0.044867
     61 H66         -1.0420    -0.2430    -2.9330 hc         1 F7N       0.044867
     62 H64         -0.0730    -1.1550    -4.0910 hc         1 F7N       0.044867
     63 H67         -3.0900     1.2500     0.4140 hn         1 F7N       0.504000
     64 H68         -3.1400     0.0900     1.5690 hn         1 F7N       0.504000
     65 C25          0.0530    -1.9470    -2.0540 c3         1 F7N      -0.053700
     66 C8          -4.6050     3.1890    -2.0120 c3         1 F7N       0.139900
     67 C26          0.5430    -3.3430    -2.5140 c3         1 F7N      -0.095600
     68 C27         -0.7190    -1.2520    -3.2100 c3         1 F7N      -0.095600
@<TRIPOS>BOND
     1     1     2 1   
     2     1    28 1   
     3     1    30 1   
     4     1    31 1   
     5     2     3 1   
     6     2    32 1   
     7     2    33 1   
     8     3    11 1   
     9     3    25 1   
    10     3    34 1   
    11     4    12 1   
    12     4    26 1   
    13     4    38 1   
    14     4    39 1   
    15     5    13 1   
    16     5    14 ar  
    17     5    16 ar  
    18     6    15 ar  
    19     6    16 ar  
    20     6    20 1   
    21     7     8 1   
    22     7    17 1   
    23     7    40 1   
    24     7    41 1   
    25     8     9 1   
    26     8    10 1   
    27     8    65 1   
    28     9    19 1   
    29     9    42 1   
    30     9    43 1   
    31    10    26 1   
    32    10    27 2   
    33    11    18 1   
    34    11    29 1   
    35    11    47 1   
    36    12    14 1   
    37    12    48 1   
    38    12    49 1   
    39    13    26 1   
    40    13    50 1   
    41    13    51 1   
    42    14    24 ar  
    43    15    24 ar  
    44    15    52 1   
    45    16    53 1   
    46    17    19 1   
    47    17    54 1   
    48    17    55 1   
    49    18    28 1   
    50    18    56 1   
    51    18    57 1   
    52    19    25 1   
    53    19    58 1   
    54    20    21 1   
    55    20    22 1   
    56    20    23 1   
    57    25    63 1   
    58    25    64 1   
    59    29    66 1   
    60    35    66 1   
    61    36    66 1   
    62    37    66 1   
    63    44    67 1   
    64    45    67 1   
    65    46    67 1   
    66    59    65 1   
    67    60    68 1   
    68    61    68 1   
    69    62    68 1   
    70    65    67 1   
    71    65    68 1   
@<TRIPOS>SUBSTRUCTURE
     1 F7N         1 TEMP              0 ****  ****    0 ROOT
