@<TRIPOS>MOLECULE
F7P
   42    43     1     0     0
SMALL
abcg2


@<TRIPOS>ATOM
      1 CB          -2.1540     0.4390    -0.7840 c3         1 F7P      -0.043200
      2 CA          -2.9900     0.6230     0.5040 c3         1 F7P       0.027500
      3 C           -4.3960     1.1130     0.0950 c          1 F7P       0.723000
      4 O           -5.3230     0.2800     0.1220 o          1 F7P      -0.733000
      5 N           -3.0730    -0.5560     1.3460 n8         1 F7P      -0.989200
      6 C5           4.0880     2.7200     0.6770 c3         1 F7P      -0.126100
      7 C4           2.8150     2.0750     0.1430 c3         1 F7P       0.162300
      8 C2           3.1870     0.1100     1.6320 c3         1 F7P      -0.101600
      9 CG          -0.7560    -0.0220    -0.5340 cc         1 F7P      -0.109400
     10 CD1          0.3400     0.7670    -0.3450 cd         1 F7P      -0.161100
     11 CD2         -0.2900    -1.3670    -0.4060 ca         1 F7P      -0.095800
     12 NE1          1.4700     0.0170    -0.1060 na         1 F7P      -0.099700
     13 CE2          1.0990    -1.3100    -0.1360 ca         1 F7P      -0.043200
     14 CE3         -0.9380    -2.6040    -0.5030 ca         1 F7P      -0.050000
     15 CZ2          1.8260    -2.4920     0.0550 ca         1 F7P      -0.141000
     16 CZ3         -0.2110    -3.7620    -0.3240 ca         1 F7P      -0.159000
     17 CH2          1.1610    -3.7000    -0.0420 ca         1 F7P      -0.110000
     18 C1           2.8240     0.5320     0.2050 c3         1 F7P       0.133000
     19 C3           3.8290    -0.0260    -0.8060 c3         1 F7P      -0.101600
     20 O6           2.5900     2.4500    -1.1990 oh         1 F7P      -0.651000
     21 O1          -4.4740     2.3010    -0.2770 o          1 F7P      -0.733000
     22 H1          -2.6670    -0.2790    -1.4350 hc         1 F7P       0.051700
     23 H2          -2.1380     1.3880    -1.3250 hc         1 F7P       0.051700
     24 H3          -2.5070     1.4180     1.0830 h1         1 F7P       0.040700
     25 H4          -3.6550    -1.2450     0.8860 hn         1 F7P       0.379000
     26 H5          -2.1550    -0.9720     1.4530 hn         1 F7P       0.379000
     27 H9           4.0400     3.7970     0.5050 hc         1 F7P       0.039033
     28 H10          1.9940     2.4240     0.7870 h1         1 F7P       0.046700
     29 H11          2.5720     0.6350     2.3640 hc         1 F7P       0.045033
     30 H12          3.0430    -0.9570     1.7850 hc         1 F7P       0.045033
     31 H13          4.2320     0.3260     1.8470 hc         1 F7P       0.045033
     32 H14          0.3750     1.8410    -0.3910 h4         1 F7P       0.212000
     33 H15         -2.0000    -2.6500    -0.7100 ha         1 F7P       0.125000
     34 H16          2.8830    -2.4970     0.2770 ha         1 F7P       0.097000
     35 H17         -0.6990    -4.7260    -0.3970 ha         1 F7P       0.100000
     36 H18          1.7180    -4.6160     0.1070 ha         1 F7P       0.092000
     37 H19          3.9370    -1.1050    -0.7210 hc         1 F7P       0.045033
     38 H20          3.5360     0.2030    -1.8290 hc         1 F7P       0.045033
     39 H21          4.8180     0.3980    -0.6310 hc         1 F7P       0.045033
     40 H22          2.5080     3.4080    -1.2350 ho         1 F7P       0.442000
     41 H7           4.1960     2.5810     1.7510 hc         1 F7P       0.039033
     42 H8           4.9890     2.3480     0.1890 hc         1 F7P       0.039033
@<TRIPOS>BOND
     1     1     2 1   
     2     1     9 1   
     3     1    22 1   
     4     1    23 1   
     5     2     3 1   
     6     2     5 1   
     7     2    24 1   
     8     3     4 1   
     9     3    21 1   
    10     5    25 1   
    11     5    26 1   
    12     6     7 1   
    13     6    27 1   
    14     6    41 1   
    15     6    42 1   
    16     7    18 1   
    17     7    20 1   
    18     7    28 1   
    19     8    18 1   
    20     8    29 1   
    21     8    30 1   
    22     8    31 1   
    23     9    10 2   
    24     9    11 1   
    25    10    12 1   
    26    10    32 1   
    27    11    13 ar  
    28    11    14 ar  
    29    12    13 1   
    30    12    18 1   
    31    13    15 ar  
    32    14    16 ar  
    33    14    33 1   
    34    15    17 ar  
    35    15    34 1   
    36    16    17 ar  
    37    16    35 1   
    38    17    36 1   
    39    18    19 1   
    40    19    37 1   
    41    19    38 1   
    42    19    39 1   
    43    20    40 1   
@<TRIPOS>SUBSTRUCTURE
     1 F7P         1 TEMP              0 ****  ****    0 ROOT
