@<TRIPOS>MOLECULE
F7P
   42    43     1     0     0
SMALL
No Charge or Current Charge


@<TRIPOS>ATOM
      1 CB          -2.2230     0.3350    -0.8180 c3         1 F7P      -0.043200
      2 CA          -3.0790     0.5970     0.4510 c3         1 F7P       0.027500
      3 C           -4.4850     1.2130     0.0560 c          1 F7P       0.723000
      4 O           -5.3040     0.4930    -0.5040 o          1 F7P      -0.733000
      5 N           -3.0990    -0.6240     1.3360 n8         1 F7P      -0.989200
      6 C5           4.1950     2.8160     0.6060 c3         1 F7P      -0.126100
      7 C4           2.8810     2.1260     0.1530 c3         1 F7P       0.162300
      8 C2           3.2540     0.1070     1.6670 c3         1 F7P      -0.101600
      9 CG          -0.7990    -0.0770    -0.5260 cc         1 F7P      -0.109400
     10 CD1          0.2820     0.7670    -0.3240 cd         1 F7P      -0.161100
     11 CD2         -0.2910    -1.4090    -0.3820 ca         1 F7P      -0.095800
     12 NE1          1.4590     0.0130    -0.0650 na         1 F7P      -0.099700
     13 CE2          1.0530    -1.3340    -0.0980 ca         1 F7P      -0.043200
     14 CE3         -0.9730    -2.6310    -0.4950 ca         1 F7P      -0.050000
     15 CZ2          1.7870    -2.5230     0.1130 ca         1 F7P      -0.141000
     16 CZ3         -0.2490    -3.8200    -0.2950 ca         1 F7P      -0.159000
     17 CH2          1.1260    -3.7650     0.0120 ca         1 F7P      -0.110000
     18 C1           2.8500     0.5340     0.2230 c3         1 F7P       0.133000
     19 C3           3.8690    -0.0400    -0.8140 c3         1 F7P      -0.101600
     20 O6           2.6010     2.6040    -1.1750 oh         1 F7P      -0.651000
     21 O1          -4.7300     2.3660     0.3890 o          1 F7P      -0.733000
     22 H1          -2.7140    -0.4240    -1.4390 hc         1 F7P       0.051700
     23 H2          -2.2110     1.2510    -1.4220 hc         1 F7P       0.051700
     24 H3          -2.5540     1.3770     1.0190 h1         1 F7P       0.040700
     25 H4          -3.6870    -1.3380     0.8900 hn         1 F7P       0.379000
     26 H5          -2.1600    -1.0380     1.3200 hn         1 F7P       0.379000
     27 H9           4.1010     3.9050     0.5200 hc         1 F7P       0.039033
     28 H10          2.1020     2.4920     0.8370 h1         1 F7P       0.046700
     29 H11          2.6390     0.6290     2.4090 hc         1 F7P       0.045033
     30 H12          3.1280    -0.9640     1.8410 hc         1 F7P       0.045033
     31 H13          4.3060     0.3350     1.8720 hc         1 F7P       0.045033
     32 H14          0.2810     1.8500    -0.3510 h4         1 F7P       0.212000
     33 H15         -2.0340    -2.6630    -0.7310 ha         1 F7P       0.125000
     34 H16          2.8420    -2.5220     0.3580 ha         1 F7P       0.097000
     35 H17         -0.7510    -4.7810    -0.3750 ha         1 F7P       0.100000
     36 H18          1.6810    -4.6860     0.1710 ha         1 F7P       0.092000
     37 H19          3.9540    -1.1260    -0.7670 hc         1 F7P       0.045033
     38 H20          3.5720     0.2170    -1.8370 hc         1 F7P       0.045033
     39 H21          4.8760     0.3550    -0.6450 hc         1 F7P       0.045033
     40 H22          2.6770     3.5820    -1.1530 ho         1 F7P       0.442000
     41 H7           4.4210     2.6010     1.6560 hc         1 F7P       0.039033
     42 H8           5.0510     2.5090    -0.0060 hc         1 F7P       0.039033
@<TRIPOS>BOND
     1     1     2 1   
     2     1     9 1   
     3     1    22 1   
     4     1    23 1   
     5     2     3 1   
     6     2     5 1   
     7     2    24 1   
     8     3     4 1   
     9     3    21 1   
    10     5    25 1   
    11     5    26 1   
    12     6     7 1   
    13     6    27 1   
    14     6    41 1   
    15     6    42 1   
    16     7    18 1   
    17     7    20 1   
    18     7    28 1   
    19     8    18 1   
    20     8    29 1   
    21     8    30 1   
    22     8    31 1   
    23     9    10 2   
    24     9    11 1   
    25    10    12 1   
    26    10    32 1   
    27    11    13 ar  
    28    11    14 ar  
    29    12    13 1   
    30    12    18 1   
    31    13    15 ar  
    32    14    16 ar  
    33    14    33 1   
    34    15    17 ar  
    35    15    34 1   
    36    16    17 ar  
    37    16    35 1   
    38    17    36 1   
    39    18    19 1   
    40    19    37 1   
    41    19    38 1   
    42    19    39 1   
    43    20    40 1   
@<TRIPOS>SUBSTRUCTURE
     1 F7P         1 TEMP              0 ****  ****    0 ROOT
