@<TRIPOS>MOLECULE
F7Q
   25    25     1     0     0
SMALL
No Charge or Current Charge


@<TRIPOS>ATOM
      1 C           -5.6020    -8.6140   -22.9150 c          1 F7Q       0.718000
      2 O           -4.8000    -9.0860   -23.7110 o          1 F7Q      -0.721000
      3 CA          -6.4320    -9.6250   -22.0090 c3         1 F7Q       0.013500
      4 N           -5.7850   -10.0210   -20.7030 n8         1 F7Q      -1.022200
      5 CB          -7.8950    -9.1250   -21.7890 c3         1 F7Q      -0.039400
      6 CAG         -8.9670   -10.1870   -21.3730 c6         1 F7Q       0.180400
      7 OAA        -10.2250    -9.4690   -21.3380 os         1 F7Q      -0.225000
      8 OAB        -11.3420   -10.3800   -21.0040 oh         1 F7Q      -0.456000
      9 CAJ         -8.6610   -10.7380   -19.9780 c2         1 F7Q      -0.126700
     10 CAM         -8.4430   -12.0530   -19.7320 ce         1 F7Q      -0.311200
     11 CAO         -8.4940   -13.0940   -20.7920 c          1 F7Q       0.574500
     12 OAE         -8.2940   -14.2760   -20.5570 o          1 F7Q      -0.557100
     13 CAL         -8.8120   -12.5980   -22.1560 ce         1 F7Q      -0.311200
     14 CAK         -9.0340   -11.2900   -22.4330 c2         1 F7Q      -0.126700
     15 H2          -6.4970   -10.5490   -22.5980 h1         1 F7Q       0.010700
     16 H3          -6.3630   -10.7430   -20.2540 hn         1 F7Q       0.395000
     17 H4          -4.8980   -10.5020   -20.8990 hn         1 F7Q       0.395000
     18 H6          -7.8810    -8.3070   -21.0590 hc         1 F7Q       0.069700
     19 H7          -8.2300    -8.6680   -22.7290 hc         1 F7Q       0.069700
     20 H8         -11.3110   -10.3620   -20.0210 ho         1 F7Q       0.432000
     21 H9          -8.6170   -10.0010   -19.1730 ha         1 F7Q       0.191000
     22 H10         -8.2230   -12.4110   -18.7280 ha         1 F7Q       0.189000
     23 H11         -8.8650   -13.3560   -22.9350 ha         1 F7Q       0.189000
     24 H12         -9.2770   -10.9650   -23.4450 ha         1 F7Q       0.191000
     25 OXT         -5.7880    -7.4090   -22.7920 o          1 F7Q      -0.721000
@<TRIPOS>BOND
     1     1     2 1   
     2     1     3 1   
     3     1    25 1   
     4     3     4 1   
     5     3     5 1   
     6     3    15 1   
     7     4    16 1   
     8     4    17 1   
     9     5     6 1   
    10     5    18 1   
    11     5    19 1   
    12     6     7 1   
    13     6     9 1   
    14     6    14 1   
    15     7     8 1   
    16     8    20 1   
    17     9    10 2   
    18     9    21 1   
    19    10    11 1   
    20    10    22 1   
    21    11    12 2   
    22    11    13 1   
    23    13    14 2   
    24    13    23 1   
    25    14    24 1   
@<TRIPOS>SUBSTRUCTURE
     1 F7Q         1 TEMP              0 ****  ****    0 ROOT
