@<TRIPOS>MOLECULE
F7Q
   25    25     1     0     0
SMALL
bcc


@<TRIPOS>ATOM
      1 C           -5.6220    -8.6970   -22.8100 c          1 F7Q       0.928600
      2 O           -4.4340    -8.5800   -22.4490 o          1 F7Q      -0.826300
      3 CA          -6.4880    -9.7350   -22.0290 c3         1 F7Q       0.013500
      4 N           -5.8370   -10.1220   -20.7870 n8         1 F7Q      -0.911800
      5 CB          -7.8870    -9.1740   -21.7810 c3         1 F7Q      -0.039400
      6 CAG         -8.9390   -10.2040   -21.3270 c6         1 F7Q       0.157200
      7 OAA        -10.1290    -9.4170   -21.2130 os         1 F7Q      -0.201800
      8 OAB        -11.2100   -10.2460   -20.8580 oh         1 F7Q      -0.417000
      9 CAJ         -8.6060   -10.7920   -19.9900 c2         1 F7Q      -0.076700
     10 CAM         -8.4520   -12.0980   -19.7790 ce         1 F7Q      -0.261200
     11 CAO         -8.5810   -13.0750   -20.8690 c          1 F7Q       0.574500
     12 OAE         -8.4090   -14.2680   -20.6850 o          1 F7Q      -0.557100
     13 CAL         -8.9410   -12.5440   -22.1930 ce         1 F7Q      -0.261200
     14 CAK         -9.1240   -11.2410   -22.3920 c2         1 F7Q      -0.076700
     15 H2          -6.5840   -10.5880   -22.7190 h1         1 F7Q       0.010700
     16 H3          -5.9180   -11.1160   -20.6300 hn         1 F7Q       0.339800
     17 H4          -4.8510    -9.9160   -20.8980 hn         1 F7Q       0.339800
     18 H6          -7.8230    -8.3880   -21.0220 hc         1 F7Q       0.069700
     19 H7          -8.2570    -8.7200   -22.7010 hc         1 F7Q       0.069700
     20 H8         -11.2840   -10.1060   -19.9020 ho         1 F7Q       0.393000
     21 H9          -8.5010   -10.0880   -19.1720 ha         1 F7Q       0.141000
     22 H10         -8.2090   -12.4810   -18.7950 ha         1 F7Q       0.139000
     23 H11         -9.0640   -13.2580   -22.9980 ha         1 F7Q       0.139000
     24 H12         -9.4060   -10.8710   -23.3730 ha         1 F7Q       0.141000
     25 OXT         -6.1790    -8.1060   -23.7520 o          1 F7Q      -0.826300
@<TRIPOS>BOND
     1     1     2 1   
     2     1     3 1   
     3     1    25 1   
     4     3     4 1   
     5     3     5 1   
     6     3    15 1   
     7     4    16 1   
     8     4    17 1   
     9     5     6 1   
    10     5    18 1   
    11     5    19 1   
    12     6     7 1   
    13     6     9 1   
    14     6    14 1   
    15     7     8 1   
    16     8    20 1   
    17     9    10 2   
    18     9    21 1   
    19    10    11 1   
    20    10    22 1   
    21    11    12 2   
    22    11    13 1   
    23    13    14 2   
    24    13    23 1   
    25    14    24 1   
@<TRIPOS>SUBSTRUCTURE
     1 F7Q         1 TEMP              0 ****  ****    0 ROOT
