@<TRIPOS>MOLECULE
F7S
   25    24     1     0     0
SMALL
No Charge or Current Charge


@<TRIPOS>ATOM
      1 C1          -1.9230    -2.4500     0.2470 c3         1 F7S       0.159100
      2 N           -0.8780    -1.5710    -0.3090 n7         1 F7S      -0.825400
      3 CA          -0.8640    -0.1650     0.2240 c3         1 F7S       0.032500
      4 C           -2.1920     0.6650    -0.0370 c          1 F7S       0.718000
      5 O           -2.3910     1.1460    -1.1480 o          1 F7S      -0.726500
      6 CB           0.3860     0.5880    -0.3220 c3         1 F7S      -0.063400
      7 CG           1.7770    -0.0020     0.0630 c3         1 F7S      -0.067700
      8 CD           2.9080     0.7750    -0.6660 c3         1 F7S       0.157600
      9 OD           4.1690     0.1120    -0.5100 oh         1 F7S      -0.671000
     10 CE           2.0010    -0.0360     1.5990 c3         1 F7S      -0.077100
     11 O1          -2.9710     0.8180     0.8970 o          1 F7S      -0.726500
     12 H1          -1.8190    -2.5360     1.3370 h1         1 F7S       0.014033
     13 H2          -2.9250    -2.0600     0.0240 h1         1 F7S       0.014033
     14 H3          -1.8450    -3.4570    -0.1850 h1         1 F7S       0.014033
     15 H4           0.0310    -1.9960    -0.0980 hn         1 F7S       0.360000
     16 H6          -0.7590    -0.2140     1.3150 h1         1 F7S       0.005700
     17 H7           0.3120     0.6340    -1.4160 hc         1 F7S       0.049200
     18 H8           0.3420     1.6270     0.0290 hc         1 F7S       0.049200
     19 H9           1.8170    -1.0360    -0.3020 hc         1 F7S       0.049700
     20 H10          2.6620     0.8480    -1.7340 h1         1 F7S       0.015700
     21 H11          2.9610     1.7970    -0.2670 h1         1 F7S       0.015700
     22 H12          4.8350     0.6510    -0.9910 ho         1 F7S       0.425000
     23 H13          1.2680    -0.6830     2.0930 hc         1 F7S       0.026700
     24 H14          2.9940    -0.4300     1.8450 hc         1 F7S       0.026700
     25 H15          1.9180     0.9700     2.0270 hc         1 F7S       0.026700
@<TRIPOS>BOND
     1     1     2 1   
     2     1    12 1   
     3     1    13 1   
     4     1    14 1   
     5     2     3 1   
     6     2    15 1   
     7     3     4 1   
     8     3     6 1   
     9     3    16 1   
    10     4     5 1   
    11     4    11 1   
    12     6     7 1   
    13     6    17 1   
    14     6    18 1   
    15     7     8 1   
    16     7    10 1   
    17     7    19 1   
    18     8     9 1   
    19     8    20 1   
    20     8    21 1   
    21     9    22 1   
    22    10    23 1   
    23    10    24 1   
    24    10    25 1   
@<TRIPOS>SUBSTRUCTURE
     1 F7S         1 TEMP              0 ****  ****    0 ROOT
