@<TRIPOS>MOLECULE
F7S
   25    24     1     0     0
SMALL
bcc


@<TRIPOS>ATOM
      1 C1          -1.9220    -2.3560     0.2840 c3         1 F7S       0.159100
      2 N           -0.8710    -1.5460    -0.2950 n7         1 F7S      -0.770200
      3 CA          -0.8200    -0.2020     0.2480 c3         1 F7S       0.032500
      4 C           -2.0750     0.6320    -0.1040 c          1 F7S       0.928600
      5 O           -2.6440     0.3990    -1.1850 o          1 F7S      -0.831800
      6 CB           0.3950     0.5480    -0.3040 c3         1 F7S      -0.063400
      7 CG           1.7710    -0.0430     0.0180 c3         1 F7S      -0.067700
      8 CD           2.8300     0.8520    -0.6100 c3         1 F7S       0.134400
      9 OD           4.1080     0.2770    -0.4450 oh         1 F7S      -0.608800
     10 CE           2.0000    -0.2160     1.5160 c3         1 F7S      -0.077100
     11 O1          -2.3820     1.5170     0.7230 o          1 F7S      -0.831800
     12 H1          -1.9260    -2.3680     1.3850 h1         1 F7S       0.014033
     13 H2          -2.8980    -2.0000    -0.0440 h1         1 F7S       0.014033
     14 H3          -1.8210    -3.3880    -0.0550 h1         1 F7S       0.014033
     15 H4           0.0110    -2.0020    -0.1010 hn         1 F7S       0.304800
     16 H6          -0.7480    -0.2180     1.3490 h1         1 F7S       0.005700
     17 H7           0.2850     0.6180    -1.3920 hc         1 F7S       0.049200
     18 H8           0.3570     1.5720     0.0800 hc         1 F7S       0.049200
     19 H9           1.8590    -1.0250    -0.4630 hc         1 F7S       0.049700
     20 H10          2.5950     0.9890    -1.6750 h1         1 F7S       0.015700
     21 H11          2.7770     1.8470    -0.1440 h1         1 F7S       0.015700
     22 H12          4.7590     0.8920    -0.7930 ho         1 F7S       0.386000
     23 H13          1.2970    -0.9280     1.9510 hc         1 F7S       0.026700
     24 H14          3.0020    -0.5870     1.7250 hc         1 F7S       0.026700
     25 H15          1.8760     0.7310     2.0460 hc         1 F7S       0.026700
@<TRIPOS>BOND
     1     1     2 1   
     2     1    12 1   
     3     1    13 1   
     4     1    14 1   
     5     2     3 1   
     6     2    15 1   
     7     3     4 1   
     8     3     6 1   
     9     3    16 1   
    10     4     5 1   
    11     4    11 1   
    12     6     7 1   
    13     6    17 1   
    14     6    18 1   
    15     7     8 1   
    16     7    10 1   
    17     7    19 1   
    18     8     9 1   
    19     8    20 1   
    20     8    21 1   
    21     9    22 1   
    22    10    23 1   
    23    10    24 1   
    24    10    25 1   
@<TRIPOS>SUBSTRUCTURE
     1 F7S         1 TEMP              0 ****  ****    0 ROOT
