@<TRIPOS>MOLECULE
F7U
   34    35     1     0     0
SMALL
No Charge or Current Charge


@<TRIPOS>ATOM
      1 C2           1.5440    27.4990    49.6770 cc         1 F7U       0.731800
      2 C4           0.1910    25.7350    50.0450 cd         1 F7U       0.145400
      3 C5           0.9150    24.9500    49.1870 cc         1 F7U       0.097500
      4 C6           2.1030    25.5000    48.4900 c          1 F7U       0.522500
      5 N1           2.3210    26.8020    48.8180 ns         1 F7U      -0.456400
      6 C8          -0.6800    23.7030    49.9240 cd         1 F7U       0.411400
      7 N2           1.8910    28.7540    49.8820 nv         1 F7U      -1.039200
      8 N3           0.4860    27.0700    50.3260 nd         1 F7U      -0.708100
      9 N7           0.3780    23.6840    49.1110 nc         1 F7U      -0.590000
     10 O6           2.8270    24.8960    47.7110 o          1 F7U      -0.515000
     11 N9          -0.8280    24.9510    50.5280 na         1 F7U      -0.164500
     12 C2B         -1.8900    25.3550    51.4730 c3         1 F7U      -0.002400
     13 C2A         -3.2300    25.6940    50.8000 c          1 F7U       0.589100
     14 O2A         -3.5270    25.3300    49.6700 o          1 F7U      -0.578100
     15 N4          -4.0920    26.4400    51.5730 ns         1 F7U      -0.504900
     16 C7          -5.4240    26.9040    51.1480 c3         1 F7U       0.113700
     17 C1          -5.3160    28.1600    50.2390 c3         1 F7U       0.149600
     18 O1          -6.5920    28.5010    49.6710 oh         1 F7U      -0.668000
     19 C3          -6.3390    27.1210    52.3860 c3         1 F7U       0.149600
     20 O3          -5.7020    27.9650    53.3650 oh         1 F7U      -0.668000
     21 H1           3.1230    27.2480    48.4060 hn         1 F7U       0.322500
     22 H2          -1.3610    22.8830    50.1200 h5         1 F7U       0.059100
     23 H3           1.1850    29.2820    50.3800 hn         1 F7U       0.496000
     24 H4           2.3260    29.2430    49.1100 hn         1 F7U       0.496000
     25 H5          -2.0680    24.5480    52.1930 h1         1 F7U       0.077700
     26 H6          -1.5550    26.2380    52.0300 h1         1 F7U       0.077700
     27 H7          -3.7790    26.7070    52.5000 hn         1 F7U       0.326500
     28 H8          -5.8810    26.1070    50.5460 h1         1 F7U       0.092700
     29 H9          -4.5950    27.9550    49.4360 h1         1 F7U       0.035950
     30 H10         -4.9220    28.9990    50.8280 h1         1 F7U       0.035950
     31 H11         -6.4550    29.2980    49.1110 ho         1 F7U       0.447500
     32 H12         -7.2970    27.5520    52.0670 h1         1 F7U       0.035950
     33 H13         -6.5570    26.1400    52.8300 h1         1 F7U       0.035950
     34 H14         -6.3410    28.0840    54.1030 ho         1 F7U       0.447500
@<TRIPOS>BOND
     1     1     5 1   
     2     1     7 1   
     3     1     8 2   
     4     2     3 2   
     5     2     8 1   
     6     2    11 1   
     7     3     4 1   
     8     3     9 1   
     9     4     5 1   
    10     4    10 2   
    11     5    21 1   
    12     6     9 2   
    13     6    11 1   
    14     6    22 1   
    15     7    23 1   
    16     7    24 1   
    17    11    12 1   
    18    12    13 1   
    19    12    25 1   
    20    12    26 1   
    21    13    14 2   
    22    13    15 1   
    23    15    16 1   
    24    15    27 1   
    25    16    17 1   
    26    16    19 1   
    27    16    28 1   
    28    17    18 1   
    29    17    29 1   
    30    17    30 1   
    31    18    31 1   
    32    19    20 1   
    33    19    32 1   
    34    19    33 1   
    35    20    34 1   
@<TRIPOS>SUBSTRUCTURE
     1 F7U         1 TEMP              0 ****  ****    0 ROOT
