@<TRIPOS>MOLECULE
F7U
   34    35     1     0     0
SMALL
bcc


@<TRIPOS>ATOM
      1 C2           0.7200    27.5580    49.4850 cc         1 F7U       0.731800
      2 C4          -0.0430    25.5920    50.1370 cd         1 F7U       0.130800
      3 C5           0.8250    24.8430    49.3650 cc         1 F7U       0.162800
      4 C6           1.7690    25.5290    48.5480 c          1 F7U       0.665000
      5 N1           1.6260    26.9160    48.6910 ns         1 F7U      -0.523400
      6 C8          -0.3950    23.4500    50.3800 cd         1 F7U       0.411400
      7 N2           0.7660    28.9000    49.5020 nv         1 F7U      -0.928800
      8 N3          -0.1450    26.9240    50.2360 nd         1 F7U      -0.708100
      9 N7           0.5870    23.5020    49.5330 nc         1 F7U      -0.590000
     10 O6           2.6150    25.0680    47.7990 o          1 F7U      -0.590500
     11 N9          -0.8100    24.6870    50.7950 na         1 F7U      -0.185900
     12 C2B         -1.9210    25.0040    51.6450 c3         1 F7U      -0.031700
     13 C2A         -3.0570    25.6160    50.8310 c          1 F7U       0.656100
     14 O2A         -3.1960    25.3580    49.6490 o          1 F7U      -0.578100
     15 N4          -3.8740    26.4040    51.5400 ns         1 F7U      -0.571900
     16 C7          -5.0200    27.0870    50.9720 c3         1 F7U       0.113700
     17 C1          -4.5880    28.4710    50.4900 c3         1 F7U       0.126400
     18 O1          -5.6930    29.1050    49.8940 oh         1 F7U      -0.605800
     19 C3          -6.1530    27.1120    51.9830 c3         1 F7U       0.126400
     20 O3          -5.7220    27.8120    53.1290 oh         1 F7U      -0.605800
     21 H1           2.2750    27.4780    48.1540 hn         1 F7U       0.322500
     22 H2          -0.8600    22.5500    50.7540 h5         1 F7U       0.059100
     23 H3          -0.0010    29.3760    49.9460 hn         1 F7U       0.440800
     24 H4           1.2210    29.4040    48.7590 hn         1 F7U       0.440800
     25 H5          -2.2760    24.0830    52.1100 h1         1 F7U       0.077700
     26 H6          -1.6000    25.6680    52.4490 h1         1 F7U       0.077700
     27 H7          -3.6410    26.6160    52.4980 hn         1 F7U       0.326500
     28 H8          -5.3640    26.5070    50.1130 h1         1 F7U       0.092700
     29 H9          -3.7620    28.3400    49.7790 h1         1 F7U       0.035950
     30 H10         -4.1930    29.0450    51.3370 h1         1 F7U       0.035950
     31 H11         -5.4180    29.9780    49.6010 ho         1 F7U       0.408500
     32 H12         -7.0310    27.5790    51.5240 h1         1 F7U       0.035950
     33 H13         -6.4250    26.0770    52.2210 h1         1 F7U       0.035950
     34 H14         -6.3550    27.6580    53.8360 ho         1 F7U       0.408500
@<TRIPOS>BOND
     1     1     5 1   
     2     1     7 1   
     3     1     8 2   
     4     2     3 2   
     5     2     8 1   
     6     2    11 1   
     7     3     4 1   
     8     3     9 1   
     9     4     5 1   
    10     4    10 2   
    11     5    21 1   
    12     6     9 2   
    13     6    11 1   
    14     6    22 1   
    15     7    23 1   
    16     7    24 1   
    17    11    12 1   
    18    12    13 1   
    19    12    25 1   
    20    12    26 1   
    21    13    14 2   
    22    13    15 1   
    23    15    16 1   
    24    15    27 1   
    25    16    17 1   
    26    16    19 1   
    27    16    28 1   
    28    17    18 1   
    29    17    29 1   
    30    17    30 1   
    31    18    31 1   
    32    19    20 1   
    33    19    32 1   
    34    19    33 1   
    35    20    34 1   
@<TRIPOS>SUBSTRUCTURE
     1 F7U         1 TEMP              0 ****  ****    0 ROOT
