@<TRIPOS>MOLECULE
F7V
   19    18     1     0     0
SMALL
No Charge or Current Charge


@<TRIPOS>ATOM
      1 N           -0.3830    -1.5260     0.7930 n8         1 F7V      -0.886800
      2 CA          -0.7100    -0.0840     0.4720 c3         1 F7V       0.017500
      3 C           -2.1700     0.2150    -0.0850 c          1 F7V       0.903600
      4 O           -2.5980    -0.4590    -1.0180 o          1 F7V      -0.840300
      5 CB           0.3580     0.5220    -0.4780 c3         1 F7V      -0.039200
      6 CG           1.7650     0.5040     0.0910 c2         1 F7V      -0.104200
      7 CD           2.8480     0.0090    -0.5290 c2         1 F7V      -0.235200
      8 CE           4.2510    -0.0060     0.0370 c3         1 F7V      -0.037900
      9 O1          -2.8710     1.0280     0.5080 o          1 F7V      -0.840300
     10 H1          -1.0720    -1.8880     1.4610 hn         1 F7V       0.326300
     11 H2          -0.5350    -2.0910    -0.0500 hn         1 F7V       0.326300
     12 H4          -0.6370     0.4640     1.4210 h1         1 F7V       0.040700
     13 H5           0.3250    -0.0040    -1.4410 hc         1 F7V       0.049200
     14 H6           0.0780     1.5610    -0.6920 hc         1 F7V       0.049200
     15 H7           1.8530     0.9430     1.0860 ha         1 F7V       0.103000
     16 H8           2.7600    -0.4290    -1.5230 ha         1 F7V       0.107000
     17 H9           4.2890     0.4440     1.0370 hc         1 F7V       0.020367
     18 H10          4.6280    -1.0320     0.1180 hc         1 F7V       0.020367
     19 H11          4.9380     0.5550    -0.6080 hc         1 F7V       0.020367
@<TRIPOS>BOND
     1     1     2 1   
     2     1    10 1   
     3     1    11 1   
     4     2     3 1   
     5     2     5 1   
     6     2    12 1   
     7     3     4 1   
     8     3     9 1   
     9     5     6 1   
    10     5    13 1   
    11     5    14 1   
    12     6     7 2   
    13     6    15 1   
    14     7     8 1   
    15     7    16 1   
    16     8    17 1   
    17     8    18 1   
    18     8    19 1   
@<TRIPOS>SUBSTRUCTURE
     1 F7V         1 TEMP              0 ****  ****    0 ROOT
