@<TRIPOS>MOLECULE
F7V
   19    18     1     0     0
SMALL
bcc


@<TRIPOS>ATOM
      1 N           -0.2950    -1.4600     0.7450 n8         1 F7V      -0.886800
      2 CA          -0.6990    -0.0830     0.5100 c3         1 F7V       0.017500
      3 C           -2.1270     0.1060    -0.0650 c          1 F7V       0.903600
      4 O           -2.8310    -0.9130    -0.2110 o          1 F7V      -0.840300
      5 CB           0.3310     0.6190    -0.3810 c3         1 F7V      -0.039200
      6 CG           1.7250     0.5270     0.1490 c2         1 F7V      -0.104200
      7 CD           2.7630     0.0130    -0.5050 c2         1 F7V      -0.235200
      8 CE           4.1590    -0.0650     0.0220 c3         1 F7V      -0.037900
      9 O1          -2.4660     1.2820    -0.3140 o          1 F7V      -0.840300
     10 H1          -1.1090    -1.9720     1.0650 hn         1 F7V       0.326300
     11 H2          -0.0650    -1.8880    -0.1450 hn         1 F7V       0.326300
     12 H4          -0.6920     0.4360     1.4800 h1         1 F7V       0.040700
     13 H5           0.2930     0.1960    -1.3920 hc         1 F7V       0.049200
     14 H6           0.0380     1.6670    -0.4730 hc         1 F7V       0.049200
     15 H7           1.8830     0.9220     1.1520 ha         1 F7V       0.103000
     16 H8           2.6020    -0.3880    -1.5040 ha         1 F7V       0.107000
     17 H9           4.2370     0.3570     1.0240 hc         1 F7V       0.020367
     18 H10          4.5100    -1.0990     0.0660 hc         1 F7V       0.020367
     19 H11          4.8590     0.4710    -0.6240 hc         1 F7V       0.020367
@<TRIPOS>BOND
     1     1     2 1   
     2     1    10 1   
     3     1    11 1   
     4     2     3 1   
     5     2     5 1   
     6     2    12 1   
     7     3     4 1   
     8     3     9 1   
     9     5     6 1   
    10     5    13 1   
    11     5    14 1   
    12     6     7 2   
    13     6    15 1   
    14     7     8 1   
    15     7    16 1   
    16     8    17 1   
    17     8    18 1   
    18     8    19 1   
@<TRIPOS>SUBSTRUCTURE
     1 F7V         1 TEMP              0 ****  ****    0 ROOT
