@<TRIPOS>MOLECULE
F7W
   26    27     1     0     0
SMALL
bcc


@<TRIPOS>ATOM
      1 F1          71.4120    22.2680     5.2050 f          1 F7W      -0.169900
      2 CZ2         72.1260    21.4240     5.9720 ca         1 F7W       0.099900
      3 CH2         72.9320    21.8910     6.9780 ca         1 F7W      -0.170000
      4 CZ3         73.6600    20.9760     7.7620 ca         1 F7W      -0.169000
      5 CE3         73.5880    19.6180     7.5390 ca         1 F7W      -0.061000
      6 CD2         72.7650    19.1380     6.5110 ca         1 F7W      -0.050800
      7 CE2         72.0310    20.0580     5.7320 ca         1 F7W      -0.095200
      8 NE1         71.3080    19.3560     4.8180 na         1 F7W      -0.169400
      9 CD1         71.5540    18.0230     4.9970 cc         1 F7W      -0.093100
     10 CG          72.4410    17.8300     6.0200 cd         1 F7W      -0.083400
     11 CB          72.9470    16.5110     6.5070 c3         1 F7W       0.025800
     12 CA          74.2770    16.0600     5.8830 c3         1 F7W       0.024500
     13 N           75.3520    16.9350     6.3180 n8         1 F7W      -0.872800
     14 C           74.1500    16.0020     4.3430 c          1 F7W       0.930600
     15 O           74.9060    16.7230     3.6660 o          1 F7W      -0.835300
     16 H1          73.0050    22.9550     7.1640 ha         1 F7W       0.125000
     17 H2          74.2930    21.3610     8.5520 ha         1 F7W       0.113000
     18 H3          74.1660    18.9300     8.1430 ha         1 F7W       0.137000
     19 H4          70.6810    19.7420     4.1330 hn         1 F7W       0.293700
     20 H5          71.0660    17.2920     4.3720 h4         1 F7W       0.177000
     21 H6          72.2000    15.7410     6.3060 hc         1 F7W       0.024200
     22 H7          73.0640    16.5420     7.5960 hc         1 F7W       0.024200
     23 H8          74.4300    15.0200     6.2180 h1         1 F7W      -0.004300
     24 H9          75.5770    16.7350     7.2850 hn         1 F7W       0.316300
     25 H10         76.1860    16.7400     5.7810 hn         1 F7W       0.316300
     26 OXT         73.2840    15.2120     3.9120 o          1 F7W      -0.835300
@<TRIPOS>BOND
     1     1     2 1   
     2     2     3 ar  
     3     2     7 ar  
     4     3     4 ar  
     5     3    16 1   
     6     4     5 ar  
     7     4    17 1   
     8     5     6 ar  
     9     5    18 1   
    10     6     7 ar  
    11     6    10 1   
    12     7     8 1   
    13     8     9 1   
    14     8    19 1   
    15     9    10 2   
    16     9    20 1   
    17    10    11 1   
    18    11    12 1   
    19    11    21 1   
    20    11    22 1   
    21    12    13 1   
    22    12    14 1   
    23    12    23 1   
    24    13    24 1   
    25    13    25 1   
    26    14    15 1   
    27    14    26 1   
@<TRIPOS>SUBSTRUCTURE
     1 F7W         1 TEMP              0 ****  ****    0 ROOT
