@<TRIPOS>MOLECULE
F7W
   26    27     1     0     0
SMALL
No Charge or Current Charge


@<TRIPOS>ATOM
      1 F1          71.3610    22.3360     5.2290 f          1 F7W      -0.205000
      2 CZ2         72.0690    21.4730     5.9910 ca         1 F7W       0.135000
      3 CH2         72.8640    21.9410     7.0580 ca         1 F7W      -0.152000
      4 CZ3         73.6010    21.0260     7.8510 ca         1 F7W      -0.151000
      5 CE3         73.5440    19.6410     7.5800 ca         1 F7W      -0.043000
      6 CD2         72.7420    19.2130     6.5110 ca         1 F7W      -0.050800
      7 CE2         72.0300    20.0930     5.7430 ca         1 F7W      -0.095200
      8 NE1         71.3330    19.3910     4.7730 na         1 F7W      -0.219700
      9 CD1         71.5860    18.0090     4.9050 cc         1 F7W      -0.143100
     10 CG          72.4640    17.8960     5.9790 cd         1 F7W      -0.083400
     11 CB          72.9970    16.5900     6.5280 c3         1 F7W       0.025800
     12 CA          74.2910    16.0750     5.8340 c3         1 F7W       0.024500
     13 N           75.5010    16.8780     6.2580 n8         1 F7W      -0.983200
     14 C           74.0550    15.8520     4.2760 c          1 F7W       0.720000
     15 O           74.7930    16.4130     3.4720 o          1 F7W      -0.730000
     16 H1          72.9100    23.0060     7.2690 ha         1 F7W       0.107000
     17 H2          74.2130    21.3910     8.6720 ha         1 F7W       0.095000
     18 H3          74.1060    18.9290     8.1800 ha         1 F7W       0.119000
     19 H4          70.7280    19.8150     4.0760 hn         1 F7W       0.344000
     20 H5          71.1420    17.2540     4.2620 h4         1 F7W       0.227000
     21 H6          72.2220    15.8190     6.4320 hc         1 F7W       0.024200
     22 H7          73.1770    16.6830     7.6060 hc         1 F7W       0.024200
     23 H8          74.4790    15.0710     6.2380 h1         1 F7W      -0.004300
     24 H9          75.6710    16.7370     7.2590 hn         1 F7W       0.371500
     25 H10         76.3340    16.4910     5.8010 hn         1 F7W       0.371500
     26 OXT         73.1890    15.0580     3.9300 o          1 F7W      -0.730000
@<TRIPOS>BOND
     1     1     2 1   
     2     2     3 ar  
     3     2     7 ar  
     4     3     4 ar  
     5     3    16 1   
     6     4     5 ar  
     7     4    17 1   
     8     5     6 ar  
     9     5    18 1   
    10     6     7 ar  
    11     6    10 1   
    12     7     8 1   
    13     8     9 1   
    14     8    19 1   
    15     9    10 2   
    16     9    20 1   
    17    10    11 1   
    18    11    12 1   
    19    11    21 1   
    20    11    22 1   
    21    12    13 1   
    22    12    14 1   
    23    12    23 1   
    24    13    24 1   
    25    13    25 1   
    26    14    15 1   
    27    14    26 1   
@<TRIPOS>SUBSTRUCTURE
     1 F7W         1 TEMP              0 ****  ****    0 ROOT
