@<TRIPOS>MOLECULE
F7Z
   74    79     1     0     0
SMALL
No Charge or Current Charge


@<TRIPOS>ATOM
      1 C12         17.4000    -0.4800    19.0690 c5         1 F7Z      -0.050700
      2 C13         14.4810     0.9470    25.0280 c3         1 F7Z      -0.067400
      3 C14         14.3820     1.9210    26.2210 c3         1 F7Z      -0.089100
      4 C16         17.8670     1.0220    17.0920 c2         1 F7Z      -0.102200
      5 C19         18.4350    -3.7910    15.9710 c          1 F7Z       0.602300
      6 C20         17.1100    -3.4030    16.5450 ce         1 F7Z      -0.294200
      7 C22         20.0090    -3.5920    13.0210 c3         1 F7Z      -0.103400
      8 C23         19.4960    -4.7550    13.8980 c3         1 F7Z       0.110000
      9 C1          15.0770     1.5730    23.7380 c5         1 F7Z      -0.051700
     10 C2          14.2560     2.7390    23.0690 c5         1 F7Z      -0.057700
     11 C3          14.8720     2.8400    21.6210 c5         1 F7Z      -0.072400
     12 C4          15.8040     1.5920    21.5030 c5         1 F7Z      -0.064700
     13 C5          15.2070     0.6090    22.5290 c5         1 F7Z      -0.063700
     14 C6          15.6090     0.8800    20.1230 c5         1 F7Z      -0.046700
     15 C7          16.2570    -0.5720    20.1390 c5         1 F7Z      -0.054700
     16 C11         16.7870     0.5450    18.0640 c5         1 F7Z      -0.055500
     17 C9          16.3470    -0.3990    22.7820 cx         1 F7Z       0.104300
     18 C25         19.0210    -3.1630    11.8960 c3         1 F7Z      -0.079400
     19 C8          16.9470    -0.9440    21.4980 cx         1 F7Z       0.092300
     20 C10         16.4120     1.6810    19.0490 c5         1 F7Z      -0.067400
     21 C15         12.7160     2.5410    23.0240 c3         1 F7Z      -0.086100
     22 C17         17.8820    -1.8280    18.4580 c3         1 F7Z      -0.057200
     23 O18         19.5070    -3.5990    16.5220 o          1 F7Z      -0.622100
     24 C21         16.8710    -2.5620    17.5850 c2         1 F7Z      -0.128200
     25 N24         18.3480    -4.3590    14.7210 ns         1 F7Z      -0.508900
     26 C27         18.9250     0.5390    14.8650 ce         1 F7Z       0.354100
     27 C28         17.9150     0.3490    15.9160 ce         1 F7Z      -0.245000
     28 C29         20.0720     0.0430    12.7240 c          1 F7Z       0.591200
     29 C30         18.9970    -0.1250    13.6820 cf         1 F7Z      -0.493400
     30 N31         19.8960    -0.7960    11.6710 ns         1 F7Z      -0.489900
     31 C32         18.6990    -1.6470    11.8150 c5         1 F7Z       0.005700
     32 C33         18.0600    -1.1250    13.1400 c          1 F7Z       0.613300
     33 O34         21.0020     0.8190    12.8500 o          1 F7Z      -0.615000
     34 O35         16.9910    -1.4600    13.6270 o          1 F7Z      -0.550100
     35 O36         16.1210    -1.7640    22.3630 op         1 F7Z      -0.451000
     36 HC12        18.2990    -0.0380    19.5200 hc         1 F7Z       0.058700
     37 H13A        13.4870     0.5310    24.8240 hc         1 F7Z       0.042200
     38 H13B        15.1010     0.0980    25.3400 hc         1 F7Z       0.042200
     39 H14A        13.9750     1.4070    27.1000 hc         1 F7Z       0.032367
     40 H14B        15.3720     2.3130    26.4820 hc         1 F7Z       0.032367
     41 H14C        13.7260     2.7670    25.9880 hc         1 F7Z       0.032367
     42 HC16        18.5810     1.8080    17.3490 ha         1 F7Z       0.189000
     43 HC20        16.2540    -3.8040    16.0050 ha         1 F7Z       0.177000
     44 H22B        20.9550    -3.8970    12.5570 hc         1 F7Z       0.059700
     45 H22A        20.2560    -2.7470    13.6740 hc         1 F7Z       0.059700
     46 H23B        19.2020    -5.5980    13.2590 h1         1 F7Z       0.054200
     47 H23A        20.3060    -5.1010    14.5540 h1         1 F7Z       0.054200
     48 HC1         16.0660     1.9520    24.0300 hc         1 F7Z       0.044700
     49 HC2         14.4200     3.6740    23.6160 hc         1 F7Z       0.049700
     50 HC3B        15.4450     3.7660    21.4930 hc         1 F7Z       0.045200
     51 HC3A        14.0890     2.8580    20.8530 hc         1 F7Z       0.045200
     52 HC4         16.8490     1.8550    21.7200 hc         1 F7Z       0.050700
     53 HC5         14.2590     0.1450    22.2270 hc         1 F7Z       0.072700
     54 HC6         14.5500     0.8060    19.8430 hc         1 F7Z       0.058700
     55 HC7         15.5030    -1.3190    19.8660 hc         1 F7Z       0.066700
     56 HC11        15.9000     0.1560    17.5480 hc         1 F7Z       0.063700
     57 HC9         17.0170    -0.2760    23.6340 h1         1 F7Z       0.090700
     58 H25B        18.0770    -3.7110    12.0080 hc         1 F7Z       0.051700
     59 H25A        19.4300    -3.4930    10.9330 hc         1 F7Z       0.051700
     60 HC8         18.0060    -1.2060    21.5130 h1         1 F7Z       0.088700
     61 H10B        17.3040     2.1670    19.4630 hc         1 F7Z       0.050700
     62 H10A        15.8080     2.4630    18.5760 hc         1 F7Z       0.050700
     63 H15C        12.2830     2.5110    24.0300 hc         1 F7Z       0.034700
     64 H15A        12.2340     3.3700    22.4920 hc         1 F7Z       0.034700
     65 H15B        12.4370     1.6130    22.5110 hc         1 F7Z       0.034700
     66 H17B        18.2130    -2.4960    19.2620 hc         1 F7Z       0.076700
     67 H17A        18.7820    -1.6130    17.8720 hc         1 F7Z       0.076700
     68 HC21        15.8340    -2.3630    17.8570 ha         1 F7Z       0.168000
     69 HN24        17.4190    -4.4590    14.3320 hn         1 F7Z       0.316500
     70 HO26        20.4790     1.3840    14.3620 ho         1 F7Z       0.540000
     71 HC28        17.1890    -0.4370    15.7380 ha         1 F7Z       0.219000
     72 HN31        20.5740    -0.8050    10.9170 hn         1 F7Z       0.336500
     73 HC32        17.9790    -1.4680    11.0060 h1         1 F7Z       0.080700
     74 O26         19.8910     1.4310    15.1590 oh         1 F7Z      -0.536100
@<TRIPOS>BOND
     1     1    15 1   
     2     1    16 1   
     3     1    22 1   
     4     1    36 1   
     5     2     3 1   
     6     2     9 1   
     7     2    37 1   
     8     2    38 1   
     9     3    39 1   
    10     3    40 1   
    11     3    41 1   
    12     4    16 1   
    13     4    27 2   
    14     4    42 1   
    15     5     6 1   
    16     5    23 2   
    17     5    25 1   
    18     6    24 2   
    19     6    43 1   
    20     7     8 1   
    21     7    18 1   
    22     7    44 1   
    23     7    45 1   
    24     8    25 1   
    25     8    46 1   
    26     8    47 1   
    27     9    10 1   
    28     9    13 1   
    29     9    48 1   
    30    10    11 1   
    31    10    21 1   
    32    10    49 1   
    33    11    12 1   
    34    11    50 1   
    35    11    51 1   
    36    12    13 1   
    37    12    14 1   
    38    12    52 1   
    39    13    17 1   
    40    13    53 1   
    41    14    15 1   
    42    14    20 1   
    43    14    54 1   
    44    15    19 1   
    45    15    55 1   
    46    16    20 1   
    47    16    56 1   
    48    17    19 1   
    49    17    35 1   
    50    17    57 1   
    51    18    31 1   
    52    18    58 1   
    53    18    59 1   
    54    19    35 1   
    55    19    60 1   
    56    20    61 1   
    57    20    62 1   
    58    21    63 1   
    59    21    64 1   
    60    21    65 1   
    61    22    24 1   
    62    22    66 1   
    63    22    67 1   
    64    24    68 1   
    65    25    69 1   
    66    26    27 1   
    67    26    29 2   
    68    26    74 1   
    69    27    71 1   
    70    28    29 1   
    71    28    30 1   
    72    28    33 2   
    73    29    32 1   
    74    30    31 1   
    75    30    72 1   
    76    31    32 1   
    77    31    73 1   
    78    32    34 2   
    79    70    74 1   
@<TRIPOS>SUBSTRUCTURE
     1 F7Z         1 TEMP              0 ****  ****    0 ROOT
