@<TRIPOS>MOLECULE
F7Z
   74    79     1     0     0
SMALL
abcg2


@<TRIPOS>ATOM
      1 C12         17.1060    -0.6610    19.0610 c5         1 F7Z      -0.050700
      2 C13         14.6860     1.1370    25.0190 c3         1 F7Z      -0.067400
      3 C14         15.0330     2.0810    26.1690 c3         1 F7Z      -0.089100
      4 C16         17.5700     0.7420    17.0230 c2         1 F7Z      -0.102200
      5 C19         18.5440    -3.5840    15.9550 c          1 F7Z       0.602300
      6 C20         17.1880    -3.4500    16.5440 ce         1 F7Z      -0.294200
      7 C22         20.2410    -3.3230    13.1910 c3         1 F7Z      -0.103400
      8 C23         19.8000    -4.5130    14.0460 c3         1 F7Z       0.110000
      9 C1          15.2370     1.5910    23.6710 c5         1 F7Z      -0.051700
     10 C2          14.6190     2.8840    23.0500 c5         1 F7Z      -0.057700
     11 C3          14.8120     2.7200    21.5090 c5         1 F7Z      -0.072400
     12 C4          15.5160     1.3740    21.3090 c5         1 F7Z      -0.064700
     13 C5          15.0980     0.5710    22.5400 c5         1 F7Z      -0.063700
     14 C6          15.2400     0.6210    20.0210 c5         1 F7Z      -0.046700
     15 C7          15.9130    -0.7970    20.0230 c5         1 F7Z      -0.054700
     16 C11         16.5270     0.2550    17.9580 c5         1 F7Z      -0.055500
     17 C9          15.9050    -0.6970    22.6300 cx         1 F7Z       0.104300
     18 C25         19.3070    -3.0370    12.0010 c3         1 F7Z      -0.079400
     19 C8          16.3090    -1.3470    21.3750 cx         1 F7Z       0.092300
     20 C10         15.8050     1.3390    18.7700 c5         1 F7Z      -0.067400
     21 C15         13.1430     3.1010    23.3850 c3         1 F7Z      -0.086100
     22 C17         17.7400    -1.9580    18.5420 c3         1 F7Z      -0.057200
     23 O18         19.5770    -3.1430    16.4740 o          1 F7Z      -0.622100
     24 C21         16.8560    -2.7630    17.6420 c2         1 F7Z      -0.128200
     25 N24         18.5720    -4.2660    14.7860 ns         1 F7Z      -0.508900
     26 C27         18.7560     0.6270    14.8710 ce         1 F7Z       0.354100
     27 C28         17.6680     0.3090    15.7590 ce         1 F7Z      -0.245000
     28 C29         20.1270     0.1980    12.8490 c          1 F7Z       0.591200
     29 C30         18.9290    -0.0150    13.6590 cf         1 F7Z      -0.493400
     30 N31         20.0970    -0.6610    11.8130 ns         1 F7Z      -0.489900
     31 C32         18.9460    -1.5560    11.8280 c5         1 F7Z       0.005700
     32 C33         18.1350    -1.0440    13.0300 c          1 F7Z       0.613300
     33 O34         21.0240     1.0280    13.0960 o          1 F7Z      -0.615000
     34 O35         17.0370    -1.4940    13.3280 o          1 F7Z      -0.550100
     35 O36         15.2580    -1.9110    22.1910 op         1 F7Z      -0.451000
     36 HC12        17.8950    -0.1020    19.5760 hc         1 F7Z       0.058700
     37 H13A        13.6020     1.0090    24.9520 hc         1 F7Z       0.042200
     38 H13B        15.0930     0.1460    25.2420 hc         1 F7Z       0.042200
     39 H14A        14.6300     1.7170    27.1160 hc         1 F7Z       0.032367
     40 H14B        16.1170     2.1720    26.2790 hc         1 F7Z       0.032367
     41 H14C        14.6340     3.0830    26.0000 hc         1 F7Z       0.032367
     42 HC16        18.3140     1.4240    17.4240 ha         1 F7Z       0.189000
     43 HC20        16.3980    -3.9700    16.0130 ha         1 F7Z       0.177000
     44 H22B        21.2530    -3.5170    12.8310 hc         1 F7Z       0.059700
     45 H22A        20.3140    -2.4540    13.8470 hc         1 F7Z       0.059700
     46 H23B        19.6360    -5.3930    13.4210 h1         1 F7Z       0.054200
     47 H23A        20.5840    -4.7530    14.7640 h1         1 F7Z       0.054200
     48 HC1         16.3110     1.7770    23.8020 hc         1 F7Z       0.044700
     49 HC2         15.1750     3.7540    23.4060 hc         1 F7Z       0.049700
     50 HC3B        15.3700     3.5490    21.0710 hc         1 F7Z       0.045200
     51 HC3A        13.8350     2.6990    21.0180 hc         1 F7Z       0.045200
     52 HC4         16.6010     1.5280    21.3840 hc         1 F7Z       0.050700
     53 HC5         14.0420     0.2940    22.4400 hc         1 F7Z       0.072700
     54 HC6         14.1580     0.5010    19.9250 hc         1 F7Z       0.058700
     55 HC7         15.2050    -1.5080    19.5870 hc         1 F7Z       0.066700
     56 HC11        15.7920    -0.3260    17.3930 hc         1 F7Z       0.063700
     57 HC9         16.5300    -0.8320    23.5090 h1         1 F7Z       0.090700
     58 H25B        18.3600    -3.5690    12.1160 hc         1 F7Z       0.051700
     59 H25A        19.7540    -3.3970    11.0730 hc         1 F7Z       0.051700
     60 HC8         17.2120    -1.9510    21.3850 h1         1 F7Z       0.088700
     61 H10B        16.5290     2.0980    19.0770 hc         1 F7Z       0.050700
     62 H10A        15.0330     1.8410    18.1880 hc         1 F7Z       0.050700
     63 H15C        12.9800     3.2860    24.4480 hc         1 F7Z       0.034700
     64 H15A        12.7610     3.9640    22.8350 hc         1 F7Z       0.034700
     65 H15B        12.5400     2.2350    23.0980 hc         1 F7Z       0.034700
     66 H17B        18.0150    -2.5830    19.4010 hc         1 F7Z       0.076700
     67 H17A        18.6730    -1.7310    18.0320 hc         1 F7Z       0.076700
     68 HC21        15.8060    -2.7940    17.9190 ha         1 F7Z       0.168000
     69 HN24        17.7000    -4.5700    14.3850 hn         1 F7Z       0.316500
     70 HO26        20.3580     1.5690    14.5610 ho         1 F7Z       0.540000
     71 HC28        16.9450    -0.3910    15.3640 ha         1 F7Z       0.219000
     72 HN31        20.8510    -0.7340    11.1470 hn         1 F7Z       0.336500
     73 HC32        18.3480    -1.4290    10.9220 h1         1 F7Z       0.080700
     74 O26         19.6520     1.5190    15.2700 oh         1 F7Z      -0.536100
@<TRIPOS>BOND
     1     1    15 1   
     2     1    16 1   
     3     1    22 1   
     4     1    36 1   
     5     2     3 1   
     6     2     9 1   
     7     2    37 1   
     8     2    38 1   
     9     3    39 1   
    10     3    40 1   
    11     3    41 1   
    12     4    16 1   
    13     4    27 2   
    14     4    42 1   
    15     5     6 1   
    16     5    23 2   
    17     5    25 1   
    18     6    24 2   
    19     6    43 1   
    20     7     8 1   
    21     7    18 1   
    22     7    44 1   
    23     7    45 1   
    24     8    25 1   
    25     8    46 1   
    26     8    47 1   
    27     9    10 1   
    28     9    13 1   
    29     9    48 1   
    30    10    11 1   
    31    10    21 1   
    32    10    49 1   
    33    11    12 1   
    34    11    50 1   
    35    11    51 1   
    36    12    13 1   
    37    12    14 1   
    38    12    52 1   
    39    13    17 1   
    40    13    53 1   
    41    14    15 1   
    42    14    20 1   
    43    14    54 1   
    44    15    19 1   
    45    15    55 1   
    46    16    20 1   
    47    16    56 1   
    48    17    19 1   
    49    17    35 1   
    50    17    57 1   
    51    18    31 1   
    52    18    58 1   
    53    18    59 1   
    54    19    35 1   
    55    19    60 1   
    56    20    61 1   
    57    20    62 1   
    58    21    63 1   
    59    21    64 1   
    60    21    65 1   
    61    22    24 1   
    62    22    66 1   
    63    22    67 1   
    64    24    68 1   
    65    25    69 1   
    66    26    27 1   
    67    26    29 2   
    68    26    74 1   
    69    27    71 1   
    70    28    29 1   
    71    28    30 1   
    72    28    33 2   
    73    29    32 1   
    74    30    31 1   
    75    30    72 1   
    76    31    32 1   
    77    31    73 1   
    78    32    34 2   
    79    70    74 1   
@<TRIPOS>SUBSTRUCTURE
     1 F7Z         1 TEMP              0 ****  ****    0 ROOT
