@<TRIPOS>MOLECULE
F80
   50    52     1     0     0
SMALL
bcc


@<TRIPOS>ATOM
      1 C2          11.7000    19.1820    26.5250 c3         1 F80      -0.150400
      2 C1          10.2430    18.9710    26.7890 ca         1 F80       0.524600
      3 N1           9.8630    17.7170    27.0530 nb         1 F80      -0.821000
      4 C3           9.3520    20.0200    26.7640 ca         1 F80      -0.496600
      5 C5           8.0020    19.7130    27.0280 ca         1 F80       0.750200
      6 N2           7.0560    20.6610    27.0190 nu         1 F80      -0.879900
      7 C4           5.6620    20.4060    27.2820 c3         1 F80       0.228100
      8 N3           7.6190    18.4630    27.2950 nb         1 F80      -0.845000
      9 C20          8.5650    17.5340    27.2930 ca         1 F80       0.954900
     10 N5           8.2260    16.2400    27.5570 nu         1 F80      -0.737300
     11 C6           7.0090    15.6500    27.8920 ca         1 F80       0.152600
     12 C8           5.7990    16.3160    28.0570 ca         1 F80      -0.120000
     13 C9           4.6560    15.6060    28.4090 ca         1 F80      -0.194000
     14 C11          4.6760    14.2300    28.5990 ca         1 F80       0.115100
     15 O1           3.5950    13.5090    28.9660 os         1 F80      -0.314900
     16 C10          2.3810    14.1910    29.1970 c3         1 F80       0.125700
     17 C7           7.0200    14.2660    28.0860 ca         1 F80      -0.151000
     18 C19          5.8880    13.5370    28.4240 ca         1 F80      -0.043800
     19 C12          6.0190    12.0710    28.6060 ce         1 F80      -0.052400
     20 C17          5.2090    11.2140    27.9810 c2         1 F80      -0.132200
     21 C16          5.3300     9.7170    28.0800 c3         1 F80       0.195000
     22 N4           6.5870     9.2090    27.5470 n7         1 F80      -0.800200
     23 C15          7.6910     9.2770    28.4870 c3         1 F80       0.162800
     24 C14          8.1750    10.6940    28.7630 c3         1 F80      -0.070400
     25 C13          7.1560    11.5840    29.4780 c3         1 F80      -0.037200
     26 H1          12.2900    18.8880    27.3950 hc         1 F80       0.053033
     27 H2          12.0300    18.5620    25.6910 hc         1 F80       0.053033
     28 H3          11.9240    20.2210    26.2930 hc         1 F80       0.053033
     29 H4           9.6680    21.0310    26.5480 ha         1 F80       0.145000
     30 H5           7.3400    21.6070    26.8310 hn         1 F80       0.441800
     31 H6           5.1200    21.3420    27.1810 h1         1 F80       0.040367
     32 H7           5.2410    19.6890    26.5760 h1         1 F80       0.040367
     33 H8           5.4980    20.0220    28.2900 h1         1 F80       0.040367
     34 H9           9.0140    15.6130    27.5220 hn         1 F80       0.453800
     35 H10          5.7370    17.3830    27.9200 ha         1 F80       0.165000
     36 H11          3.7420    16.1700    28.5410 ha         1 F80       0.131000
     37 H12          1.6570    13.4380    29.4990 h1         1 F80       0.037700
     38 H13          2.4710    14.9330    29.9950 h1         1 F80       0.037700
     39 H14          2.0120    14.6910    28.2970 h1         1 F80       0.037700
     40 H15          7.9550    13.7300    27.9570 ha         1 F80       0.134000
     41 H16          4.4180    11.5980    27.3480 ha         1 F80       0.132000
     42 H17          4.5190     9.2650    27.5090 h1         1 F80       0.031700
     43 H18          5.1750     9.4080    29.1290 h1         1 F80       0.031700
     44 H19          6.4510     8.2390    27.2940 hn         1 F80       0.351800
     45 H21          7.4360     8.8090    29.4540 h1         1 F80       0.023700
     46 H22          8.5200     8.6990    28.0710 h1         1 F80       0.023700
     47 H23          9.0660    10.6180    29.3920 hc         1 F80       0.044700
     48 H24          8.4890    11.1660    27.8280 hc         1 F80       0.044700
     49 H25          7.6730    12.4400    29.9130 hc         1 F80       0.044700
     50 H26          6.7420    11.0300    30.3290 hc         1 F80       0.044700
@<TRIPOS>BOND
     1     1     2 1   
     2     1    26 1   
     3     1    27 1   
     4     1    28 1   
     5     2     3 ar  
     6     2     4 ar  
     7     3     9 ar  
     8     4     5 ar  
     9     4    29 1   
    10     5     6 1   
    11     5     8 ar  
    12     6     7 1   
    13     6    30 1   
    14     7    31 1   
    15     7    32 1   
    16     7    33 1   
    17     8     9 ar  
    18     9    10 1   
    19    10    11 1   
    20    10    34 1   
    21    11    12 ar  
    22    11    17 ar  
    23    12    13 ar  
    24    12    35 1   
    25    13    14 ar  
    26    13    36 1   
    27    14    15 1   
    28    14    18 ar  
    29    15    16 1   
    30    16    37 1   
    31    16    38 1   
    32    16    39 1   
    33    17    18 ar  
    34    17    40 1   
    35    18    19 1   
    36    19    20 2   
    37    19    25 1   
    38    20    21 1   
    39    20    41 1   
    40    21    22 1   
    41    21    42 1   
    42    21    43 1   
    43    22    23 1   
    44    22    44 1   
    45    23    24 1   
    46    23    45 1   
    47    23    46 1   
    48    24    25 1   
    49    24    47 1   
    50    24    48 1   
    51    25    49 1   
    52    25    50 1   
@<TRIPOS>SUBSTRUCTURE
     1 F80         1 TEMP              0 ****  ****    0 ROOT
