@<TRIPOS>MOLECULE
F80
   50    52     1     0     0
SMALL
No Charge or Current Charge


@<TRIPOS>ATOM
      1 C2          11.7690    19.4520    26.9250 c3         1 F80      -0.150400
      2 C1          10.2900    19.1230    26.9960 ca         1 F80       0.196300
      3 N1           9.9520    17.9180    27.4910 nb         1 F80      -0.295000
      4 C3           9.3110    20.0270    26.5590 ca         1 F80      -0.348000
      5 C5           7.9790    19.6250    26.6560 ca         1 F80       0.421900
      6 N2           6.9680    20.4730    26.2370 nu         1 F80      -0.935100
      7 C4           5.5160    20.2120    26.2660 c3         1 F80       0.228100
      8 N3           7.6330    18.4280    27.1480 nb         1 F80      -0.319000
      9 C20          8.6410    17.6400    27.5510 ca         1 F80       0.428900
     10 N5           8.3440    16.3770    28.0390 nu         1 F80      -0.930900
     11 C6           7.1620    15.7000    28.3700 ca         1 F80       0.291000
     12 C8           5.9870    16.3700    28.7630 ca         1 F80      -0.102000
     13 C9           4.8280    15.6480    29.0990 ca         1 F80      -0.176000
     14 C11          4.8310    14.2360    29.0530 ca         1 F80       0.115100
     15 O1           3.7130    13.4940    29.3920 os         1 F80      -0.338100
     16 C10          2.4730    14.1020    29.7930 c3         1 F80       0.148900
     17 C7           7.1650    14.2960    28.3420 ca         1 F80      -0.133000
     18 C19          6.0120    13.5560    28.6740 ca         1 F80      -0.043800
     19 C12          6.0620    12.0650    28.6140 ce         1 F80      -0.052400
     20 C17          5.2340    11.3760    27.7990 c2         1 F80      -0.182200
     21 C16          5.1610     9.8770    27.6210 c3         1 F80       0.195000
     22 N4           6.4460     9.3390    27.1350 n7         1 F80      -0.855400
     23 C15          7.5100     9.1700    28.1490 c3         1 F80       0.162800
     24 C14          8.0890    10.5080    28.6670 c3         1 F80      -0.070400
     25 C13          7.0990    11.3690    29.4810 c3         1 F80      -0.037200
     26 H1          12.2980    19.1030    27.8200 hc         1 F80       0.053033
     27 H2          12.2320    18.9770    26.0530 hc         1 F80       0.053033
     28 H3          11.9340    20.5330    26.8450 hc         1 F80       0.053033
     29 H4           9.5820    20.9980    26.1560 ha         1 F80       0.127000
     30 H5           7.2760    21.3740    25.8680 hn         1 F80       0.497000
     31 H6           4.9620    21.0720    25.8670 h1         1 F80       0.040367
     32 H7           5.2710    19.3300    25.6580 h1         1 F80       0.040367
     33 H8           5.1780    20.0300    27.2960 h1         1 F80       0.040367
     34 H9           9.1780    15.7950    28.0980 hn         1 F80       0.509000
     35 H10          5.9690    17.4530    28.8300 ha         1 F80       0.147000
     36 H11          3.9440    16.2020    29.4000 ha         1 F80       0.113000
     37 H12          1.7250    13.3300    30.0090 h1         1 F80       0.037700
     38 H13          2.6100    14.7070    30.6980 h1         1 F80       0.037700
     39 H14          2.0780    14.7440    28.9950 h1         1 F80       0.037700
     40 H15          8.0670    13.7690    28.0450 ha         1 F80       0.116000
     41 H16          4.5130    11.9150    27.1840 ha         1 F80       0.182000
     42 H17          4.3720     9.6570    26.8890 h1         1 F80       0.031700
     43 H18          4.8660     9.3990    28.5660 h1         1 F80       0.031700
     44 H19          6.2490     8.4030    26.7610 hn         1 F80       0.407000
     45 H21          7.1390     8.5820    29.0010 h1         1 F80       0.023700
     46 H22          8.3380     8.6010    27.7050 h1         1 F80       0.023700
     47 H23          8.9460    10.2730    29.3100 hc         1 F80       0.044700
     48 H24          8.4830    11.0910    27.8260 hc         1 F80       0.044700
     49 H25          7.6740    12.1100    30.0490 hc         1 F80       0.044700
     50 H26          6.6040    10.7410    30.2320 hc         1 F80       0.044700
@<TRIPOS>BOND
     1     1     2 1   
     2     1    26 1   
     3     1    27 1   
     4     1    28 1   
     5     2     3 ar  
     6     2     4 ar  
     7     3     9 ar  
     8     4     5 ar  
     9     4    29 1   
    10     5     6 1   
    11     5     8 ar  
    12     6     7 1   
    13     6    30 1   
    14     7    31 1   
    15     7    32 1   
    16     7    33 1   
    17     8     9 ar  
    18     9    10 1   
    19    10    11 1   
    20    10    34 1   
    21    11    12 ar  
    22    11    17 ar  
    23    12    13 ar  
    24    12    35 1   
    25    13    14 ar  
    26    13    36 1   
    27    14    15 1   
    28    14    18 ar  
    29    15    16 1   
    30    16    37 1   
    31    16    38 1   
    32    16    39 1   
    33    17    18 ar  
    34    17    40 1   
    35    18    19 1   
    36    19    20 2   
    37    19    25 1   
    38    20    21 1   
    39    20    41 1   
    40    21    22 1   
    41    21    42 1   
    42    21    43 1   
    43    22    23 1   
    44    22    44 1   
    45    23    24 1   
    46    23    45 1   
    47    23    46 1   
    48    24    25 1   
    49    24    47 1   
    50    24    48 1   
    51    25    49 1   
    52    25    50 1   
@<TRIPOS>SUBSTRUCTURE
     1 F80         1 TEMP              0 ****  ****    0 ROOT
