@<TRIPOS>MOLECULE
F81
   17    17     1     0     0
SMALL
bcc


@<TRIPOS>ATOM
      1 C02          0.5440    -0.4610    -0.1100 ca         1 F81       0.145100
      2 C03          1.8750    -0.0050    -0.0730 ca         1 F81       0.047100
      3 C05          4.1640    -0.6370    -0.0970 c3         1 F81       0.133700
      4 C06          2.1480     1.3510    -0.0030 ca         1 F81      -0.160000
      5 C07          1.0990     2.2680     0.0320 ca         1 F81      -0.134000
      6 C08         -0.2130     1.8400    -0.0020 ca         1 F81      -0.098000
      7 C09         -0.4770     0.4750    -0.0730 ca         1 F81      -0.040900
      8 O01          0.2560    -1.7690    -0.1790 oh         1 F81      -0.475100
      9 O04          2.7940    -0.9900    -0.1090 os         1 F81      -0.343900
     10 BR10        -2.2580    -0.1370    -0.1200 br         1 F81      -0.075100
     11 H1           4.4360    -0.1120     0.8220 h1         1 F81       0.043033
     12 H2           4.7230    -1.5680    -0.1500 h1         1 F81       0.043033
     13 H3           4.4290    -0.0150    -0.9550 h1         1 F81       0.043033
     14 H4           3.1680     1.7100     0.0270 ha         1 F81       0.138000
     15 H5           1.3170     3.3260     0.0860 ha         1 F81       0.137000
     16 H6          -1.0240     2.5540     0.0260 ha         1 F81       0.150000
     17 H7           1.0710    -2.2850    -0.2240 ho         1 F81       0.446000
@<TRIPOS>BOND
     1     1     2 ar  
     2     1     7 ar  
     3     1     8 1   
     4     2     4 ar  
     5     2     9 1   
     6     3     9 1   
     7     3    11 1   
     8     3    12 1   
     9     3    13 1   
    10     4     5 ar  
    11     4    14 1   
    12     5     6 ar  
    13     5    15 1   
    14     6     7 ar  
    15     6    16 1   
    16     7    10 1   
    17     8    17 1   
@<TRIPOS>SUBSTRUCTURE
     1 F81         1 TEMP              0 ****  ****    0 ROOT
