@<TRIPOS>MOLECULE
F81
   17    17     1     0     0
SMALL
No Charge or Current Charge


@<TRIPOS>ATOM
      1 C02          0.5000    -0.4650    -0.1150 ca         1 F81       0.145100
      2 C03          1.8440    -0.0360    -0.0820 ca         1 F81       0.047100
      3 C05          4.2380    -0.6650    -0.0980 c3         1 F81       0.156900
      4 C06          2.1340     1.3450    -0.0070 ca         1 F81      -0.142000
      5 C07          1.0860     2.2820     0.0340 ca         1 F81      -0.116000
      6 C08         -0.2510     1.8520     0.0010 ca         1 F81      -0.080000
      7 C09         -0.5470     0.4800    -0.0730 ca         1 F81      -0.040900
      8 O01          0.2310    -1.8040    -0.1880 oh         1 F81      -0.514100
      9 O04          2.8380    -1.0010    -0.1260 os         1 F81      -0.367100
     10 Br10        -2.3830    -0.0780    -0.1160 br         1 F81      -0.075100
     11 H1           4.4930    -0.1300     0.8260 h1         1 F81       0.043033
     12 H2           4.8490    -1.5760    -0.1410 h1         1 F81       0.043033
     13 H3           4.5060    -0.0360    -0.9560 h1         1 F81       0.043033
     14 H4           3.1580     1.7080     0.0190 ha         1 F81       0.120000
     15 H5           1.3110     3.3460     0.0920 ha         1 F81       0.119000
     16 H6          -1.0570     2.5820     0.0340 ha         1 F81       0.132000
     17 H7           1.1020    -2.2590    -0.2050 ho         1 F81       0.485000
@<TRIPOS>BOND
     1     1     2 ar  
     2     1     7 ar  
     3     1     8 1   
     4     2     4 ar  
     5     2     9 1   
     6     3     9 1   
     7     3    11 1   
     8     3    12 1   
     9     3    13 1   
    10     4     5 ar  
    11     4    14 1   
    12     5     6 ar  
    13     5    15 1   
    14     6     7 ar  
    15     6    16 1   
    16     7    10 1   
    17     8    17 1   
@<TRIPOS>SUBSTRUCTURE
     1 F81         1 TEMP              0 ****  ****    0 ROOT
