@<TRIPOS>MOLECULE
F82
   62    65     1     0     0
SMALL
No Charge or Current Charge


@<TRIPOS>ATOM
      1 C1          19.2140    -0.3910     3.2450 c3         1 F82       0.099300
      2 C2          19.2970    -1.8230     3.8180 c3         1 F82      -0.107600
      3 C3          17.7640     0.6700     5.0750 cc         1 F82      -0.167000
      4 O4           7.6100    -2.0980    13.8590 os         1 F82      -0.326100
      5 C7          15.0690     2.5830     8.2730 c3         1 F82      -0.091100
      6 C8          14.0830     1.5740     8.8670 ca         1 F82      -0.098300
      7 C9          14.2390     1.1550    10.2030 ca         1 F82      -0.053000
      8 C10         13.3500     0.2240    10.7630 ca         1 F82      -0.137000
      9 C11         12.3040    -0.3020     9.9860 ca         1 F82       0.149100
     10 C12         12.1310     0.1180     8.6610 ca         1 F82      -0.191000
     11 C13         13.0210     1.0530     8.0900 ca         1 F82       0.165100
     12 C14         11.8570     0.9900     5.9080 c3         1 F82       0.149900
     13 C15         11.8000    -2.2790    11.2880 ca         1 F82       0.366300
     14 C16         10.9300    -2.7620    12.2960 ca         1 F82      -0.140000
     15 C19          9.2630    -3.7860    14.3300 ca         1 F82       0.160100
     16 C20         10.5150    -4.3840    14.0610 ca         1 F82      -0.187000
     17 C21         11.3510    -3.8820    13.0500 ca         1 F82       0.055000
     18 C22         13.2970    -3.9370    11.8170 ca         1 F82       0.153900
     19 C24          7.0990    -0.9570    13.1460 c3         1 F82       0.144900
     20 O           17.1030     1.3350     7.8890 o          1 F82      -0.588100
     21 C6          16.1140     1.8710     7.4040 c          1 F82       0.604100
     22 C4          16.5650     1.3140     5.0040 cd         1 F82      -0.070400
     23 C5          16.1640     1.3370     3.6510 cd         1 F82       0.205900
     24 N1          17.0400     0.7430     2.8620 nc         1 F82      -0.515800
     25 N           18.0250     0.3330     3.7460 na         1 F82       0.119800
     26 C           20.5160     0.4020     3.4940 c3         1 F82      -0.107600
     27 O1          12.8890     1.4810     6.7810 os         1 F82      -0.350100
     28 O2          11.4100    -1.2010    10.5190 os         1 F82      -0.379400
     29 N4          12.9850    -2.8790    11.0460 nb         1 F82      -0.254000
     30 N3          12.5430    -4.4630    12.8030 nb         1 F82      -0.190000
     31 O3           8.4230    -4.2670    15.3230 os         1 F82      -0.323100
     32 C23          8.7620    -5.3990    16.1430 c3         1 F82       0.143900
     33 C18          8.8430    -2.6660    13.5750 ca         1 F82       0.109100
     34 C17          9.6810    -2.1570    12.5570 ca         1 F82      -0.135000
     35 H1          19.0990    -0.4860     2.1570 h1         1 F82       0.082700
     36 H2          20.1400    -2.3680     3.3760 hc         1 F82       0.048867
     37 H3          19.4320    -1.8040     4.9060 hc         1 F82       0.048867
     38 H4          18.3790    -2.3800     3.5940 hc         1 F82       0.048867
     39 H5          18.4250     0.4280     5.8970 h4         1 F82       0.180000
     40 H6          15.5890     3.1160     9.0780 hc         1 F82       0.065200
     41 H7          14.5120     3.3070     7.6660 hc         1 F82       0.065200
     42 H8          15.0510     1.5500    10.8110 ha         1 F82       0.118000
     43 H9          13.4730    -0.0840    11.7980 ha         1 F82       0.131000
     44 H10         11.3050    -0.2980     8.0930 ha         1 F82       0.132000
     45 H11         11.9420     1.4570     4.9190 h1         1 F82       0.045033
     46 H12         11.9390    -0.0970     5.7790 h1         1 F82       0.045033
     47 H13         10.8620     1.2240     6.3090 h1         1 F82       0.045033
     48 H14         10.8560    -5.2440    14.6290 ha         1 F82       0.142000
     49 H15         14.2540    -4.4180    11.6250 h5         1 F82       0.052100
     50 H16          6.1120    -0.6780    13.5350 h1         1 F82       0.044700
     51 H17          7.7660    -0.0930    13.2610 h1         1 F82       0.044700
     52 H18          6.9910    -1.1820    12.0770 h1         1 F82       0.044700
     53 H19         14.9470     2.3100     5.8270 hn         1 F82       0.318500
     54 H20         15.2650     1.7650     3.2260 h4         1 F82       0.034100
     55 H21         20.4500     1.4000     3.0450 hc         1 F82       0.048867
     56 H22         20.7050     0.5200     4.5680 hc         1 F82       0.048867
     57 H23         21.3750    -0.1150     3.0490 hc         1 F82       0.048867
     58 H24          7.9560    -5.6030    16.8590 h1         1 F82       0.047700
     59 H25          8.9060    -6.2970    15.5290 h1         1 F82       0.047700
     60 H26          9.6810    -5.2080    16.7120 h1         1 F82       0.047700
     61 H27          9.3740    -1.2970    11.9690 ha         1 F82       0.138000
     62 N2          15.8310     1.8660     6.0480 ns         1 F82      -0.378100
@<TRIPOS>BOND
     1     1     2 1   
     2     1    25 1   
     3     1    26 1   
     4     1    35 1   
     5     2    36 1   
     6     2    37 1   
     7     2    38 1   
     8     3    22 2   
     9     3    25 1   
    10     3    39 1   
    11     4    19 1   
    12     4    33 1   
    13     5     6 1   
    14     5    21 1   
    15     5    40 1   
    16     5    41 1   
    17     6     7 ar  
    18     6    11 ar  
    19     7     8 ar  
    20     7    42 1   
    21     8     9 ar  
    22     8    43 1   
    23     9    10 ar  
    24     9    28 1   
    25    10    11 ar  
    26    10    44 1   
    27    11    27 1   
    28    12    27 1   
    29    12    45 1   
    30    12    46 1   
    31    12    47 1   
    32    13    14 ar  
    33    13    28 1   
    34    13    29 ar  
    35    14    17 ar  
    36    14    34 ar  
    37    15    16 ar  
    38    15    31 1   
    39    15    33 ar  
    40    16    17 ar  
    41    16    48 1   
    42    17    30 ar  
    43    18    29 ar  
    44    18    30 ar  
    45    18    49 1   
    46    19    50 1   
    47    19    51 1   
    48    19    52 1   
    49    20    21 2   
    50    21    62 1   
    51    22    23 1   
    52    22    62 1   
    53    23    24 2   
    54    23    54 1   
    55    24    25 1   
    56    26    55 1   
    57    26    56 1   
    58    26    57 1   
    59    31    32 1   
    60    32    58 1   
    61    32    59 1   
    62    32    60 1   
    63    33    34 ar  
    64    34    61 1   
    65    53    62 1   
@<TRIPOS>SUBSTRUCTURE
     1 F82         1 TEMP              0 ****  ****    0 ROOT
