@<TRIPOS>MOLECULE
F82
   62    65     1     0     0
SMALL
abcg2


@<TRIPOS>ATOM
      1 C1          19.4590    -0.4860     3.5020 c3         1 F82       0.099300
      2 C2          18.7230    -1.7710     3.1340 c3         1 F82      -0.107600
      3 C3          17.6490     0.6010     4.8950 cc         1 F82      -0.167000
      4 O4           7.7820    -2.3070    14.2900 os         1 F82      -0.326100
      5 C7          14.4480     2.5970     7.5010 c3         1 F82      -0.091100
      6 C8          13.6610     1.8040     8.5000 ca         1 F82      -0.098300
      7 C9          13.8230     1.9810     9.8660 ca         1 F82      -0.053000
      8 C10         13.1030     1.2300    10.7940 ca         1 F82      -0.137000
      9 C11         12.2160     0.2870    10.3180 ca         1 F82       0.149100
     10 C12         12.0130     0.0770     8.9610 ca         1 F82      -0.191000
     11 C13         12.7420     0.8380     8.0520 ca         1 F82       0.165100
     12 C14         11.7510    -0.2870     6.1850 c3         1 F82       0.149900
     13 C15         11.8600    -1.6550    11.6280 ca         1 F82       0.366300
     14 C16         11.0030    -2.3670    12.5030 ca         1 F82      -0.140000
     15 C19          9.4680    -3.9460    14.2220 ca         1 F82       0.160100
     16 C20         10.6860    -4.4120    13.7830 ca         1 F82      -0.187000
     17 C21         11.4780    -3.6340    12.9140 ca         1 F82       0.055000
     18 C22         13.3660    -3.3480    11.6740 ca         1 F82       0.153900
     19 C24          7.2550    -1.0330    13.9160 c3         1 F82       0.144900
     20 O           15.9530     0.7150     7.2280 o          1 F82      -0.588100
     21 C6          15.5060     1.7660     6.7790 c          1 F82       0.604100
     22 C4          16.9410     1.7880     4.7900 cd         1 F82      -0.070400
     23 C5          17.4460     2.4130     3.6340 cd         1 F82       0.205900
     24 N1          18.3960     1.6660     3.0680 nc         1 F82      -0.515800
     25 N           18.5060     0.5770     3.8450 na         1 F82       0.119800
     26 C           20.4670    -0.6930     4.6300 c3         1 F82      -0.107600
     27 O1          12.6300     0.7100     6.7060 os         1 F82      -0.350100
     28 O2          11.4350    -0.4400    11.2230 os         1 F82      -0.379400
     29 N4          13.0130    -2.1240    11.2180 nb         1 F82      -0.254000
     30 N3          12.6820    -4.1170    12.4820 nb         1 F82      -0.190000
     31 O3           8.6430    -4.6140    15.0490 os         1 F82      -0.323100
     32 C23          9.0590    -5.8970    15.5260 c3         1 F82       0.143900
     33 C18          8.9900    -2.6590    13.7980 ca         1 F82       0.109100
     34 C17          9.7530    -1.8900    12.9560 ca         1 F82      -0.135000
     35 H1          19.9760    -0.1020     2.6230 h1         1 F82       0.082700
     36 H2          19.4400    -2.5240     2.8070 hc         1 F82       0.048867
     37 H3          18.1810    -2.1670     3.9950 hc         1 F82       0.048867
     38 H4          18.0130    -1.5920     2.3250 hc         1 F82       0.048867
     39 H5          17.6020    -0.1890     5.6190 h4         1 F82       0.180000
     40 H6          14.9650     3.4180     8.0030 hc         1 F82       0.065200
     41 H7          13.7860     3.0450     6.7560 hc         1 F82       0.065200
     42 H8          14.5300     2.7230    10.2160 ha         1 F82       0.118000
     43 H9          13.2330     1.3700    11.8590 ha         1 F82       0.131000
     44 H10         11.3060    -0.6750     8.6450 ha         1 F82       0.132000
     45 H11         11.8390    -0.2240     5.1040 h1         1 F82       0.045033
     46 H12         12.0480    -1.2820     6.5230 h1         1 F82       0.045033
     47 H13         10.7180    -0.0920     6.4830 h1         1 F82       0.045033
     48 H14         11.0620    -5.3760    14.0890 ha         1 F82       0.142000
     49 H15         14.3230    -3.7190    11.3220 h5         1 F82       0.052100
     50 H16          6.2930    -0.9530    14.4150 h1         1 F82       0.044700
     51 H17          7.9150    -0.2280    14.2470 h1         1 F82       0.044700
     52 H18          7.1180    -0.9730    12.8340 h1         1 F82       0.044700
     53 H19         15.5120     3.1690     5.3080 hn         1 F82       0.318500
     54 H20         17.1570     3.3590     3.2040 h4         1 F82       0.034100
     55 H21         20.9690     0.2430     4.8770 hc         1 F82       0.048867
     56 H22         19.9770    -1.0750     5.5270 hc         1 F82       0.048867
     57 H23         21.2180    -1.4200     4.3180 hc         1 F82       0.048867
     58 H24          8.2580    -6.2430    16.1740 h1         1 F82       0.047700
     59 H25          9.1940    -6.5930    14.6970 h1         1 F82       0.047700
     60 H26          9.9880    -5.8140    16.0940 h1         1 F82       0.047700
     61 H27          9.4110    -0.9200    12.6310 ha         1 F82       0.138000
     62 N2          15.9370     2.3060     5.6130 ns         1 F82      -0.378100
@<TRIPOS>BOND
     1     1     2 1   
     2     1    25 1   
     3     1    26 1   
     4     1    35 1   
     5     2    36 1   
     6     2    37 1   
     7     2    38 1   
     8     3    22 2   
     9     3    25 1   
    10     3    39 1   
    11     4    19 1   
    12     4    33 1   
    13     5     6 1   
    14     5    21 1   
    15     5    40 1   
    16     5    41 1   
    17     6     7 ar  
    18     6    11 ar  
    19     7     8 ar  
    20     7    42 1   
    21     8     9 ar  
    22     8    43 1   
    23     9    10 ar  
    24     9    28 1   
    25    10    11 ar  
    26    10    44 1   
    27    11    27 1   
    28    12    27 1   
    29    12    45 1   
    30    12    46 1   
    31    12    47 1   
    32    13    14 ar  
    33    13    28 1   
    34    13    29 ar  
    35    14    17 ar  
    36    14    34 ar  
    37    15    16 ar  
    38    15    31 1   
    39    15    33 ar  
    40    16    17 ar  
    41    16    48 1   
    42    17    30 ar  
    43    18    29 ar  
    44    18    30 ar  
    45    18    49 1   
    46    19    50 1   
    47    19    51 1   
    48    19    52 1   
    49    20    21 2   
    50    21    62 1   
    51    22    23 1   
    52    22    62 1   
    53    23    24 2   
    54    23    54 1   
    55    24    25 1   
    56    26    55 1   
    57    26    56 1   
    58    26    57 1   
    59    31    32 1   
    60    32    58 1   
    61    32    59 1   
    62    32    60 1   
    63    33    34 ar  
    64    34    61 1   
    65    53    62 1   
@<TRIPOS>SUBSTRUCTURE
     1 F82         1 TEMP              0 ****  ****    0 ROOT
