@<TRIPOS>MOLECULE
F83
   40    42     1     0     0
SMALL
No Charge or Current Charge


@<TRIPOS>ATOM
      1 O1           6.7690     2.0690    -0.5030 oh         1 F83      -0.668000
      2 C1           5.7000     2.1820     0.4550 c3         1 F83       0.158600
      3 C2           4.6690     1.0100     0.3400 c6         1 F83       0.168500
      4 N1           4.1070     0.9390    -1.0300 n7         1 F83      -0.859400
      5 C3           3.3200    -0.2960    -1.2430 c6         1 F83       0.203100
      6 C4           2.2680    -0.5110    -0.1450 ca         1 F83      -0.096300
      7 C5           1.1980    -1.3960    -0.3770 ca         1 F83      -0.017000
      8 C6           0.2290    -1.6220     0.6220 ca         1 F83      -0.315500
      9 C7           0.3350    -0.9590     1.8610 ca         1 F83      -0.006000
     10 C8           1.4030    -0.0780     2.0950 ca         1 F83      -0.132000
     11 C9           2.3740     0.1480     1.1020 ca         1 F83      -0.004300
     12 C10          3.5200     1.1300     1.3720 c6         1 F83      -0.038100
     13 S1          -1.1410    -2.7400     0.2980 sy         1 F83       1.141600
     14 O2          -1.9920    -2.8810     1.4830 o          1 F83      -0.528000
     15 O3          -0.6610    -3.8940    -0.4640 o          1 F83      -0.528000
     16 N2          -2.0980    -1.9450    -0.8320 nu         1 F83      -0.859100
     17 C11         -2.6130    -0.6480    -0.8270 ca         1 F83       0.232000
     18 C12         -3.0030    -0.0730    -2.0510 ca         1 F83      -0.100000
     19 C13         -3.5220     1.2340    -2.0960 ca         1 F83      -0.094000
     20 C14         -3.6560     1.9760    -0.9120 ca         1 F83       0.117000
     21 C15         -3.2770     1.4110     0.3150 ca         1 F83      -0.094000
     22 C16         -2.7590     0.1030     0.3590 ca         1 F83      -0.100000
     23 Cl1         -4.3030     3.6100    -0.9660 cl         1 F83      -0.196000
     24 HO1          7.3470     2.8560    -0.3810 ho         1 F83       0.450000
     25 H11          6.1070     2.1830     1.4760 h1         1 F83       0.029200
     26 H12A         5.1660     3.1320     0.3130 h1         1 F83       0.029200
     27 H2           5.2160     0.0760     0.5420 h1         1 F83       0.042700
     28 HN1          4.8960     0.9530    -1.6910 hn         1 F83       0.433000
     29 H31          3.9960    -1.1640    -1.2550 h1         1 F83       0.045700
     30 H32          2.8260    -0.2500    -2.2250 h1         1 F83       0.045700
     31 H5           1.1210    -1.9050    -1.3370 ha         1 F83       0.134000
     32 H7          -0.4040    -1.1210     2.6450 ha         1 F83       0.139000
     33 H8           1.4750     0.4320     3.0520 ha         1 F83       0.119000
     34 H101         3.9200     0.9730     2.3830 hc         1 F83       0.061200
     35 H102         3.1160     2.1510     1.3540 hc         1 F83       0.061200
     36 HN2         -1.9170    -2.3840    -1.7240 hn         1 F83       0.485000
     37 H12         -2.9030    -0.6390    -2.9730 ha         1 F83       0.135000
     38 H13         -3.8180     1.6710    -3.0470 ha         1 F83       0.135000
     39 H15         -3.3850     1.9850     1.2320 ha         1 F83       0.135000
     40 H16         -2.4810    -0.3160     1.3200 ha         1 F83       0.135000
@<TRIPOS>BOND
     1     1     2 1   
     2     1    24 1   
     3     2     3 1   
     4     2    25 1   
     5     2    26 1   
     6     3     4 1   
     7     3    12 1   
     8     3    27 1   
     9     4     5 1   
    10     4    28 1   
    11     5     6 1   
    12     5    29 1   
    13     5    30 1   
    14     6     7 ar  
    15     6    11 ar  
    16     7     8 ar  
    17     7    31 1   
    18     8     9 ar  
    19     8    13 1   
    20     9    10 ar  
    21     9    32 1   
    22    10    11 ar  
    23    10    33 1   
    24    11    12 1   
    25    12    34 1   
    26    12    35 1   
    27    13    14 2   
    28    13    15 2   
    29    13    16 1   
    30    16    17 1   
    31    16    36 1   
    32    17    18 ar  
    33    17    22 ar  
    34    18    19 ar  
    35    18    37 1   
    36    19    20 ar  
    37    19    38 1   
    38    20    21 ar  
    39    20    23 1   
    40    21    22 ar  
    41    21    39 1   
    42    22    40 1   
@<TRIPOS>SUBSTRUCTURE
     1 F83         1 TEMP              0 ****  ****    0 ROOT
