@<TRIPOS>MOLECULE
F83
   40    42     1     0     0
SMALL
bcc


@<TRIPOS>ATOM
      1 O1           6.9110     1.7000    -0.2930 oh         1 F83      -0.605800
      2 C1           5.6610     2.1720     0.1560 c3         1 F83       0.135400
      3 C2           4.6960     1.0070     0.2440 c6         1 F83       0.168500
      4 N1           4.4410     0.4530    -1.0740 n7         1 F83      -0.804200
      5 C3           3.7130    -0.7950    -0.9920 c6         1 F83       0.203100
      6 C4           2.4380    -0.6260    -0.2100 ca         1 F83      -0.096300
      7 C5           1.4200    -1.5620    -0.3400 ca         1 F83      -0.035000
      8 C6           0.2670    -1.4390     0.4180 ca         1 F83      -0.315500
      9 C7           0.1010    -0.3870     1.3120 ca         1 F83      -0.024000
     10 C8           1.1170     0.5430     1.4290 ca         1 F83      -0.150000
     11 C9           2.2870     0.4390     0.6790 ca         1 F83      -0.004300
     12 C10          3.3670     1.4740     0.8220 c6         1 F83      -0.038100
     13 S1          -1.0460    -2.5950     0.1810 sy         1 F83       1.283200
     14 O2          -1.8160    -2.6700     1.4080 o          1 F83      -0.598800
     15 O3          -0.5150    -3.8010    -0.4280 o          1 F83      -0.598800
     16 N2          -2.0440    -1.9210    -0.9780 nu         1 F83      -0.665500
     17 C11         -2.6510    -0.6720    -0.6960 ca         1 F83       0.093600
     18 C12         -2.1660     0.4950    -1.2760 ca         1 F83      -0.118000
     19 C13         -2.7720     1.7130    -1.0140 ca         1 F83      -0.112000
     20 C14         -3.8530     1.7560    -0.1470 ca         1 F83       0.025400
     21 C15         -4.3440     0.6020     0.4440 ca         1 F83      -0.112000
     22 C16         -3.7460    -0.6150     0.1590 ca         1 F83      -0.118000
     23 CL1         -4.6080     3.2760     0.1970 cl         1 F83      -0.104400
     24 HO1          7.4610     2.4570    -0.5110 ho         1 F83       0.411000
     25 H11          5.7380     2.6400     1.1460 h1         1 F83       0.029200
     26 H12A         5.2440     2.9230    -0.5270 h1         1 F83       0.029200
     27 H2           5.1290     0.2540     0.9270 h1         1 F83       0.042700
     28 HN1          5.3190     0.2850    -1.5490 hn         1 F83       0.377800
     29 H31          4.2990    -1.5970    -0.5130 h1         1 F83       0.045700
     30 H32          3.4820    -1.1420    -2.0010 h1         1 F83       0.045700
     31 H5           1.5400    -2.3840    -1.0350 ha         1 F83       0.152000
     32 H7          -0.7940    -0.2940     1.9120 ha         1 F83       0.157000
     33 H8           1.0030     1.3640     2.1260 ha         1 F83       0.137000
     34 H101         3.4840     1.7440     1.8740 hc         1 F83       0.061200
     35 H102         3.0470     2.3810     0.2990 hc         1 F83       0.061200
     36 HN2         -1.6170    -1.9760    -1.8970 hn         1 F83       0.429800
     37 H12         -1.3120     0.4580    -1.9400 ha         1 F83       0.153000
     38 H13         -2.3950     2.6160    -1.4730 ha         1 F83       0.153000
     39 H15         -5.1950     0.6450     1.1100 ha         1 F83       0.153000
     40 H16         -4.1460    -1.5200     0.5940 ha         1 F83       0.153000
@<TRIPOS>BOND
     1     1     2 1   
     2     1    24 1   
     3     2     3 1   
     4     2    25 1   
     5     2    26 1   
     6     3     4 1   
     7     3    12 1   
     8     3    27 1   
     9     4     5 1   
    10     4    28 1   
    11     5     6 1   
    12     5    29 1   
    13     5    30 1   
    14     6     7 ar  
    15     6    11 ar  
    16     7     8 ar  
    17     7    31 1   
    18     8     9 ar  
    19     8    13 1   
    20     9    10 ar  
    21     9    32 1   
    22    10    11 ar  
    23    10    33 1   
    24    11    12 1   
    25    12    34 1   
    26    12    35 1   
    27    13    14 2   
    28    13    15 2   
    29    13    16 1   
    30    16    17 1   
    31    16    36 1   
    32    17    18 ar  
    33    17    22 ar  
    34    18    19 ar  
    35    18    37 1   
    36    19    20 ar  
    37    19    38 1   
    38    20    21 ar  
    39    20    23 1   
    40    21    22 ar  
    41    21    39 1   
    42    22    40 1   
@<TRIPOS>SUBSTRUCTURE
     1 F83         1 TEMP              0 ****  ****    0 ROOT
