@<TRIPOS>MOLECULE
F85
   53    54     1     0     0
SMALL
No Charge or Current Charge


@<TRIPOS>ATOM
      1 C1           2.9970     0.3960    -0.5200 c6         1 F85       0.309700
      2 N1           1.5390     0.4190    -0.4870 ns         1 F85      -0.522900
      3 C2           3.6090     1.6940     0.1070 c6         1 F85       0.100300
      4 N2          -0.5770    -0.2510    -0.9550 ns         1 F85      -0.491500
      5 O2           3.2730     2.8850    -0.6450 oh         1 F85      -0.714000
      6 C3           5.1550     1.5380     0.1750 c6         1 F85       0.139300
      7 O3           5.7430     2.7030     0.7810 oh         1 F85      -0.666000
      8 C4           5.5380     0.2510     0.9610 c6         1 F85       0.142300
      9 O4           6.9710     0.1050     0.9820 oh         1 F85      -0.714000
     10 C5           4.8250    -0.9770     0.3120 c6         1 F85       0.179300
     11 O5           3.3910    -0.7440     0.2670 os         1 F85      -0.464000
     12 C6           5.0880    -2.3030     1.1020 c3         1 F85       0.172600
     13 O6           4.4020    -3.4470     0.5500 oh         1 F85      -0.705000
     14 C7           0.7410    -0.3480    -1.2900 c          1 F85       0.668100
     15 O7           1.1780    -1.0210    -2.2060 o          1 F85      -0.550100
     16 C8          -1.6750    -0.8520    -1.5170 c          1 F85       0.632700
     17 O8          -1.5890    -1.6120    -2.4710 o          1 F85      -0.518100
     18 C9          -3.0160    -0.5230    -0.8860 ca         1 F85      -0.164600
     19 C10         -4.1900    -1.1030    -1.4110 ca         1 F85      -0.069000
     20 C11         -5.4480    -0.8230    -0.8540 ca         1 F85      -0.119000
     21 C12         -5.5870     0.0480     0.2490 ca         1 F85      -0.035300
     22 C13         -4.4080     0.6290     0.7750 ca         1 F85      -0.119000
     23 C14         -3.1470     0.3500     0.2200 ca         1 F85      -0.069000
     24 C15         -6.9990     0.3300     0.8320 c3         1 F85      -0.004700
     25 C16         -7.6310    -1.0050     1.3110 c3         1 F85      -0.083767
     26 C17         -6.9750     1.3070     2.0410 c3         1 F85      -0.083767
     27 C18         -7.8930     0.9570    -0.2710 c3         1 F85      -0.083767
     28 H1           3.3430     0.2790    -1.5600 h2         1 F85       0.092700
     29 HN1          1.0960     0.9100     0.2770 hn         1 F85       0.305500
     30 H2           3.2270     1.7850     1.1350 h1         1 F85       0.048700
     31 HN2         -0.7780     0.3500    -0.1760 hn         1 F85       0.312500
     32 HO2          2.2940     2.8940    -0.7660 ho         1 F85       0.516000
     33 H3           5.5270     1.4320    -0.8560 h1         1 F85       0.059700
     34 HO3          5.2040     3.4550     0.4400 ho         1 F85       0.466000
     35 H4           5.1640     0.3540     1.9910 h1         1 F85       0.051700
     36 HO4          7.3160     1.0220     1.1200 ho         1 F85       0.525000
     37 H5           5.1950    -1.1130    -0.7150 h1         1 F85       0.068700
     38 H6           6.1710    -2.4880     1.1110 h1         1 F85       0.034700
     39 H6A          4.7770    -2.1450     2.1430 h1         1 F85       0.034700
     40 HO6          4.5780    -4.2060     1.1530 ho         1 F85       0.504000
     41 H10         -4.1350    -1.7810    -2.2610 ha         1 F85       0.121000
     42 H11         -6.3230    -1.2940    -1.2950 ha         1 F85       0.118000
     43 H13         -4.4420     1.3070     1.6220 ha         1 F85       0.118000
     44 H14         -2.2810     0.8290     0.6700 ha         1 F85       0.121000
     45 H16         -6.9950    -1.4860     2.0650 hc         1 F85       0.037367
     46 H16A        -8.6170    -0.8340     1.7590 hc         1 F85       0.037367
     47 H16B        -7.7640    -1.7110     0.4830 hc         1 F85       0.037367
     48 H17         -6.5610     2.2820     1.7540 hc         1 F85       0.037367
     49 H17A        -7.9880     1.4800     2.4240 hc         1 F85       0.037367
     50 H17B        -6.3770     0.9020     2.8670 hc         1 F85       0.037367
     51 H18         -8.0300     0.2750    -1.1190 hc         1 F85       0.037367
     52 H18A        -8.8890     1.1980     0.1210 hc         1 F85       0.037367
     53 H18B        -7.4450     1.8830    -0.6510 hc         1 F85       0.037367
@<TRIPOS>BOND
     1     1     2 1   
     2     1     3 1   
     3     1    11 1   
     4     1    28 1   
     5     2    14 1   
     6     2    29 1   
     7     3     5 1   
     8     3     6 1   
     9     3    30 1   
    10     4    14 1   
    11     4    16 1   
    12     4    31 1   
    13     5    32 1   
    14     6     7 1   
    15     6     8 1   
    16     6    33 1   
    17     7    34 1   
    18     8     9 1   
    19     8    10 1   
    20     8    35 1   
    21     9    36 1   
    22    10    11 1   
    23    10    12 1   
    24    10    37 1   
    25    12    13 1   
    26    12    38 1   
    27    12    39 1   
    28    13    40 1   
    29    14    15 2   
    30    16    17 2   
    31    16    18 1   
    32    18    19 ar  
    33    18    23 ar  
    34    19    20 ar  
    35    19    41 1   
    36    20    21 ar  
    37    20    42 1   
    38    21    22 ar  
    39    21    24 1   
    40    22    23 ar  
    41    22    43 1   
    42    23    44 1   
    43    24    25 1   
    44    24    26 1   
    45    24    27 1   
    46    25    45 1   
    47    25    46 1   
    48    25    47 1   
    49    26    48 1   
    50    26    49 1   
    51    26    50 1   
    52    27    51 1   
    53    27    52 1   
    54    27    53 1   
@<TRIPOS>SUBSTRUCTURE
     1 F85         1 TEMP              0 ****  ****    0 ROOT
