@<TRIPOS>MOLECULE
F85
   53    54     1     0     0
SMALL
abcg2


@<TRIPOS>ATOM
      1 C1           2.9490     0.2770    -0.3160 c6         1 F85       0.309700
      2 N1           1.5300     0.2990    -0.1970 ns         1 F85      -0.522900
      3 C2           3.5500     1.5710     0.2390 c6         1 F85       0.100300
      4 N2          -0.6310    -0.1890    -0.7460 ns         1 F85      -0.491500
      5 O2           3.1550     2.6860    -0.5170 oh         1 F85      -0.714000
      6 C3           5.0670     1.4800     0.1700 c6         1 F85       0.139300
      7 O3           5.6930     2.5730     0.7990 oh         1 F85      -0.666000
      8 C4           5.5620     0.2130     0.8570 c6         1 F85       0.142300
      9 O4           6.9440     0.0360     0.6660 oh         1 F85      -0.714000
     10 C5           4.8400    -1.0040     0.2780 c6         1 F85       0.179300
     11 O5           3.4420    -0.8310     0.4000 os         1 F85      -0.464000
     12 C6           5.2110    -2.2790     1.0050 c3         1 F85       0.172600
     13 O6           4.5790    -3.3640     0.3710 oh         1 F85      -0.705000
     14 C7           0.7040    -0.2380    -1.1370 c          1 F85       0.668100
     15 O7           1.0820    -0.6790    -2.1980 o          1 F85      -0.550100
     16 C8          -1.7130    -0.6270    -1.4760 c          1 F85       0.632700
     17 O8          -1.6170    -1.2100    -2.5320 o          1 F85      -0.518100
     18 C9          -3.0400    -0.3440    -0.8570 ca         1 F85      -0.164600
     19 C10         -4.1320    -1.1050    -1.2740 ca         1 F85      -0.069000
     20 C11         -5.3870    -0.8840    -0.7410 ca         1 F85      -0.119000
     21 C12         -5.6130     0.1080     0.2190 ca         1 F85      -0.035300
     22 C13         -4.5200     0.8750     0.6120 ca         1 F85      -0.119000
     23 C14         -3.2550     0.6560     0.0860 ca         1 F85      -0.069000
     24 C15         -7.0160     0.3190     0.7730 c3         1 F85      -0.004700
     25 C16         -7.5300    -0.9970     1.3700 c3         1 F85      -0.083767
     26 C17         -7.0530     1.3880     1.8650 c3         1 F85      -0.083767
     27 C18         -7.9410     0.7580    -0.3710 c3         1 F85      -0.083767
     28 H1           3.2080     0.1920    -1.3790 h2         1 F85       0.092700
     29 HN1          1.1520     0.5510     0.7050 hn         1 F85       0.305500
     30 H2           3.2500     1.6720     1.2940 h1         1 F85       0.048700
     31 HN2         -0.8270     0.1890     0.1690 hn         1 F85       0.312500
     32 HO2          2.2190     2.8510    -0.3620 ho         1 F85       0.516000
     33 H3           5.3570     1.4230    -0.8920 h1         1 F85       0.059700
     34 HO3          5.5540     3.3580     0.2600 ho         1 F85       0.466000
     35 H4           5.3160     0.2810     1.9290 h1         1 F85       0.051700
     36 HO4          7.3940     0.8150     1.0110 ho         1 F85       0.525000
     37 H5           5.1140    -1.1040    -0.7850 h1         1 F85       0.068700
     38 H6           6.3010    -2.3790     0.9920 h1         1 F85       0.034700
     39 H6A          4.9090    -2.1860     2.0580 h1         1 F85       0.034700
     40 HO6          4.8550    -4.1700     0.8180 ho         1 F85       0.504000
     41 H10         -3.9980    -1.8810    -2.0160 ha         1 F85       0.121000
     42 H11         -6.2070    -1.5030    -1.0830 ha         1 F85       0.118000
     43 H13         -4.6340     1.6650     1.3410 ha         1 F85       0.118000
     44 H14         -2.4530     1.3070     0.4140 ha         1 F85       0.121000
     45 H16         -6.8990    -1.3300     2.1960 hc         1 F85       0.037367
     46 H16A        -8.5420    -0.8630     1.7570 hc         1 F85       0.037367
     47 H16B        -7.5690    -1.7990     0.6320 hc         1 F85       0.037367
     48 H17         -6.7320     2.3650     1.5000 hc         1 F85       0.037367
     49 H17A        -8.0730     1.4980     2.2350 hc         1 F85       0.037367
     50 H17B        -6.4250     1.1210     2.7180 hc         1 F85       0.037367
     51 H18         -7.9910     0.0140    -1.1670 hc         1 F85       0.037367
     52 H18A        -8.9550     0.9100     0.0030 hc         1 F85       0.037367
     53 H18B        -7.6030     1.6980    -0.8120 hc         1 F85       0.037367
@<TRIPOS>BOND
     1     1     2 1   
     2     1     3 1   
     3     1    11 1   
     4     1    28 1   
     5     2    14 1   
     6     2    29 1   
     7     3     5 1   
     8     3     6 1   
     9     3    30 1   
    10     4    14 1   
    11     4    16 1   
    12     4    31 1   
    13     5    32 1   
    14     6     7 1   
    15     6     8 1   
    16     6    33 1   
    17     7    34 1   
    18     8     9 1   
    19     8    10 1   
    20     8    35 1   
    21     9    36 1   
    22    10    11 1   
    23    10    12 1   
    24    10    37 1   
    25    12    13 1   
    26    12    38 1   
    27    12    39 1   
    28    13    40 1   
    29    14    15 2   
    30    16    17 2   
    31    16    18 1   
    32    18    19 ar  
    33    18    23 ar  
    34    19    20 ar  
    35    19    41 1   
    36    20    21 ar  
    37    20    42 1   
    38    21    22 ar  
    39    21    24 1   
    40    22    23 ar  
    41    22    43 1   
    42    23    44 1   
    43    24    25 1   
    44    24    26 1   
    45    24    27 1   
    46    25    45 1   
    47    25    46 1   
    48    25    47 1   
    49    26    48 1   
    50    26    49 1   
    51    26    50 1   
    52    27    51 1   
    53    27    52 1   
    54    27    53 1   
@<TRIPOS>SUBSTRUCTURE
     1 F85         1 TEMP              0 ****  ****    0 ROOT
