@<TRIPOS>MOLECULE
F87
   53    55     1     0     0
SMALL
No Charge or Current Charge


@<TRIPOS>ATOM
      1 N2           0.6750    -1.5430    -0.1850 nb         1 F87      -0.241000
      2 C3          -1.7370    -1.5600    -0.1950 ca         1 F87      -0.227000
      3 C4          -1.6990    -0.1820     0.1370 ca         1 F87       0.390900
      4 C5          -4.2290    -1.5320    -0.4560 c          1 F87       0.566000
      5 C6          -4.1280     0.0340    -0.4210 c6         1 F87       0.158500
      6 C8          -2.8370    -4.3910     0.7190 c1         1 F87      -0.182100
      7 C9          -2.6590    -4.9190     1.7940 c1         1 F87      -0.202000
      8 C11         -2.7150     3.0020    -0.4970 c3         1 F87      -0.102400
      9 C12         -2.7540     4.5000    -0.0920 c3         1 F87      -0.055700
     10 C15         -5.4550     0.6490     0.1320 c3         1 F87      -0.092100
     11 C16          3.1190     0.1850     0.2750 ca         1 F87       0.345000
     12 C17          4.0260     0.8560     1.1070 ca         1 F87      -0.183000
     13 C18          5.4050     0.6260     0.9850 ca         1 F87       0.161500
     14 C19          5.9020    -0.2730     0.0200 ca         1 F87       0.030100
     15 C20          4.9840    -0.9320    -0.8250 ca         1 F87       0.161500
     16 C21          3.6060    -0.7010    -0.7010 ca         1 F87      -0.183000
     17 N1          -0.5300     0.4560     0.3390 nb         1 F87      -0.302000
     18 C1           0.5900    -0.2510     0.1680 ca         1 F87       0.403900
     19 C2          -0.4860    -2.1890    -0.3850 ca         1 F87       0.138900
     20 N3          -2.9970    -2.2330    -0.4780 n          1 F87      -0.194400
     21 N4          -2.8910     0.5810     0.2540 nh         1 F87      -0.760300
     22 O1          -5.3110    -2.1160    -0.4790 o          1 F87      -0.533000
     23 C13         -1.5930     4.8980     0.8510 c3         1 F87      -0.088100
     24 C14         -2.7790     5.4090    -1.3410 c3         1 F87      -0.088100
     25 N5           1.7570     0.4540     0.4230 nu         1 F87      -0.927900
     26 F1           5.4240    -1.7910    -1.7740 f          1 F87      -0.170500
     27 F2           6.2590     1.2790     1.8060 f          1 F87      -0.170500
     28 O2           7.2550    -0.4970    -0.1000 oh         1 F87      -0.509100
     29 H1          -4.0720     0.3140    -1.4830 h1         1 F87       0.061700
     30 H2          -2.2650    -4.0550    -1.2790 h1         1 F87       0.080200
     31 H3          -3.9900    -4.0520    -1.0000 h1         1 F87       0.080200
     32 H4          -2.4970    -5.3750     2.7510 ha         1 F87       0.258000
     33 H5          -2.0330     2.1700     1.3870 h1         1 F87       0.065700
     34 H6          -3.7600     2.2620     1.2560 h1         1 F87       0.065700
     35 H7          -1.7770     2.7940    -1.0260 hc         1 F87       0.047700
     36 H8          -3.5240     2.8120    -1.2120 hc         1 F87       0.047700
     37 H9          -3.6930     4.6740     0.4510 hc         1 F87       0.042700
     38 H10         -5.5730     0.4420     1.2020 hc         1 F87       0.056700
     39 H11         -5.4990     1.7330    -0.0160 hc         1 F87       0.056700
     40 H12         -6.3320     0.2410    -0.3850 hc         1 F87       0.056700
     41 H13          3.6670     1.5520     1.8590 ha         1 F87       0.155000
     42 H14          2.9280    -1.2030    -1.3810 ha         1 F87       0.155000
     43 H15         -0.3940    -3.2300    -0.6880 h4         1 F87       0.032100
     44 H16         -0.6220     4.6790     0.3890 hc         1 F87       0.034200
     45 H17         -1.6290     5.9700     1.0780 hc         1 F87       0.034200
     46 H18         -1.6520     4.3590     1.8040 hc         1 F87       0.034200
     47 H19         -3.6370     5.1680    -1.9810 hc         1 F87       0.034200
     48 H20         -2.8620     6.4640    -1.0530 hc         1 F87       0.034200
     49 H21         -1.8640     5.2860    -1.9330 hc         1 F87       0.034200
     50 H22          1.5640     1.3390     0.8890 hn         1 F87       0.512000
     51 H23          7.7280     0.0490     0.5670 ho         1 F87       0.476000
     52 C7          -3.0350    -3.7180    -0.5750 c3         1 F87       0.183100
     53 C10         -2.8590     2.0110     0.6820 c3         1 F87       0.217800
@<TRIPOS>BOND
     1     1    18 ar  
     2     1    19 ar  
     3     2     3 ar  
     4     2    19 ar  
     5     2    20 1   
     6     3    17 ar  
     7     3    21 1   
     8     4     5 1   
     9     4    20 1   
    10     4    22 2   
    11     5    10 1   
    12     5    21 1   
    13     5    29 1   
    14     6     7 3   
    15     6    52 1   
    16     7    32 1   
    17     8     9 1   
    18     8    35 1   
    19     8    36 1   
    20     8    53 1   
    21     9    23 1   
    22     9    24 1   
    23     9    37 1   
    24    10    38 1   
    25    10    39 1   
    26    10    40 1   
    27    11    12 ar  
    28    11    16 ar  
    29    11    25 1   
    30    12    13 ar  
    31    12    41 1   
    32    13    14 ar  
    33    13    27 1   
    34    14    15 ar  
    35    14    28 1   
    36    15    16 ar  
    37    15    26 1   
    38    16    42 1   
    39    17    18 ar  
    40    18    25 1   
    41    19    43 1   
    42    20    52 1   
    43    21    53 1   
    44    23    44 1   
    45    23    45 1   
    46    23    46 1   
    47    24    47 1   
    48    24    48 1   
    49    24    49 1   
    50    25    50 1   
    51    28    51 1   
    52    30    52 1   
    53    31    52 1   
    54    33    53 1   
    55    34    53 1   
@<TRIPOS>SUBSTRUCTURE
     1 F87         1 TEMP              0 ****  ****    0 ROOT
