@<TRIPOS>MOLECULE
F87
   53    55     1     0     0
SMALL
abcg2


@<TRIPOS>ATOM
      1 N2           0.5640    -1.4090    -0.3780 nb         1 F87      -0.241000
      2 C3          -1.8170    -1.4740    -0.4030 ca         1 F87      -0.227000
      3 C4          -1.8120    -0.1330     0.0480 ca         1 F87       0.390900
      4 C5          -4.2190    -1.4870    -0.5200 c          1 F87       0.566000
      5 C6          -4.1230     0.0380    -0.5630 c6         1 F87       0.158500
      6 C8          -2.5930    -4.1760     0.7230 c1         1 F87      -0.182100
      7 C9          -2.2380    -4.6490     1.7680 c1         1 F87      -0.202000
      8 C11         -2.6940     2.9000    -0.4140 c3         1 F87      -0.102400
      9 C12         -2.5450     4.3250     0.1250 c3         1 F87      -0.055700
     10 C15         -5.4410     0.6510    -0.1240 c3         1 F87      -0.092100
     11 C16          2.9270     0.2430     0.2690 ca         1 F87       0.345000
     12 C17          3.8310     1.2490     0.6240 ca         1 F87      -0.183000
     13 C18          5.1830     1.0080     0.5500 ca         1 F87       0.161500
     14 C19          5.7230    -0.2030     0.1360 ca         1 F87       0.030100
     15 C20          4.7950    -1.1740    -0.2070 ca         1 F87       0.161500
     16 C21          3.4290    -0.9880    -0.1550 ca         1 F87      -0.183000
     17 N1          -0.6750     0.4860     0.3010 nb         1 F87      -0.302000
     18 C1           0.4620    -0.1770     0.0830 ca         1 F87       0.403900
     19 C2          -0.5880    -2.0490    -0.6040 ca         1 F87       0.138900
     20 N3          -3.0360    -2.1540    -0.5230 n          1 F87      -0.194400
     21 N4          -2.9900     0.5020     0.2410 nh         1 F87      -0.760300
     22 O1          -5.2900    -2.0600    -0.5370 o          1 F87      -0.533000
     23 C13         -1.2340     4.5080     0.8870 c3         1 F87      -0.088100
     24 C14         -2.6420     5.3430    -1.0060 c3         1 F87      -0.088100
     25 N5           1.5800     0.5520     0.3730 nu         1 F87      -0.927900
     26 F1           5.2660    -2.3610    -0.6130 f          1 F87      -0.170500
     27 F2           6.0420     1.9820     0.8950 f          1 F87      -0.170500
     28 O2           7.0390    -0.4750     0.0510 oh         1 F87      -0.509100
     29 H1          -3.9580     0.3020    -1.6190 h1         1 F87       0.061700
     30 H2          -2.3920    -3.9620    -1.3600 h1         1 F87       0.080200
     31 H3          -4.0370    -3.9480    -0.7810 h1         1 F87       0.080200
     32 H4          -1.9280    -5.0660     2.6990 ha         1 F87       0.258000
     33 H5          -2.1910     1.9550     1.4630 h1         1 F87       0.065700
     34 H6          -3.9050     2.1070     1.1880 h1         1 F87       0.065700
     35 H7          -1.7860     2.6190    -0.9540 hc         1 F87       0.047700
     36 H8          -3.5150     2.8700    -1.1390 hc         1 F87       0.047700
     37 H9          -3.3730     4.5110     0.8200 hc         1 F87       0.042700
     38 H10         -5.6490     0.4520     0.9260 hc         1 F87       0.056700
     39 H11         -5.4490     1.7270    -0.2840 hc         1 F87       0.056700
     40 H12         -6.2510     0.2360    -0.7180 hc         1 F87       0.056700
     41 H13          3.4860     2.2190     0.9590 ha         1 F87       0.155000
     42 H14          2.7700    -1.7930    -0.4390 ha         1 F87       0.155000
     43 H15         -0.4930    -3.0730    -0.9450 h4         1 F87       0.032100
     44 H16         -0.3810     4.3880     0.2140 hc         1 F87       0.034200
     45 H17         -1.1720     5.5060     1.3240 hc         1 F87       0.034200
     46 H18         -1.1150     3.7890     1.6980 hc         1 F87       0.034200
     47 H19         -3.5910     5.2620    -1.5380 hc         1 F87       0.034200
     48 H20         -2.5580     6.3630    -0.6270 hc         1 F87       0.034200
     49 H21         -1.8390     5.1930    -1.7320 hc         1 F87       0.034200
     50 H22          1.3690     1.4810     0.7050 hn         1 F87       0.512000
     51 H23          7.5640     0.2740     0.3540 ho         1 F87       0.476000
     52 C7          -3.0300    -3.6070    -0.5490 c3         1 F87       0.183100
     53 C10         -2.9590     1.8860     0.6950 c3         1 F87       0.217800
@<TRIPOS>BOND
     1     1    18 ar  
     2     1    19 ar  
     3     2     3 ar  
     4     2    19 ar  
     5     2    20 1   
     6     3    17 ar  
     7     3    21 1   
     8     4     5 1   
     9     4    20 1   
    10     4    22 2   
    11     5    10 1   
    12     5    21 1   
    13     5    29 1   
    14     6     7 3   
    15     6    52 1   
    16     7    32 1   
    17     8     9 1   
    18     8    35 1   
    19     8    36 1   
    20     8    53 1   
    21     9    23 1   
    22     9    24 1   
    23     9    37 1   
    24    10    38 1   
    25    10    39 1   
    26    10    40 1   
    27    11    12 ar  
    28    11    16 ar  
    29    11    25 1   
    30    12    13 ar  
    31    12    41 1   
    32    13    14 ar  
    33    13    27 1   
    34    14    15 ar  
    35    14    28 1   
    36    15    16 ar  
    37    15    26 1   
    38    16    42 1   
    39    17    18 ar  
    40    18    25 1   
    41    19    43 1   
    42    20    52 1   
    43    21    53 1   
    44    23    44 1   
    45    23    45 1   
    46    23    46 1   
    47    24    47 1   
    48    24    48 1   
    49    24    49 1   
    50    25    50 1   
    51    28    51 1   
    52    30    52 1   
    53    31    52 1   
    54    33    53 1   
    55    34    53 1   
@<TRIPOS>SUBSTRUCTURE
     1 F87         1 TEMP              0 ****  ****    0 ROOT
