@<TRIPOS>MOLECULE
F88
   55    58     1     0     0
SMALL
No Charge or Current Charge


@<TRIPOS>ATOM
      1 C1          27.5780   104.8900    12.0550 c3         1 F88       0.090600
      2 C2          29.9770   104.8520    11.1810 cc         1 F88      -0.133000
      3 C3          30.7020   103.8850    10.5410 cd         1 F88      -0.220300
      4 C7          34.0220   100.6250     9.7100 ca         1 F88      -0.016000
      5 C8          34.1240    99.8660     8.5280 ca         1 F88      -0.140500
      6 C9          34.8360    98.6530     8.5110 ca         1 F88      -0.073500
      7 C10         35.4610    98.1890     9.6780 ca         1 F88       0.077100
      8 C11         35.3510    98.9290    10.8700 ca         1 F88      -0.073500
      9 C12         34.6390   100.1420    10.8860 ca         1 F88      -0.140500
     10 C13         37.3560    96.7930    10.2610 ca         1 F88       0.366300
     11 C14         37.6800    95.5080    10.7620 ca         1 F88      -0.140000
     12 C15         36.7820    94.4220    10.6710 ca         1 F88      -0.134000
     13 C16         37.1420    93.1560    11.1870 ca         1 F88       0.110100
     14 C19         38.9460    95.3370    11.3690 ca         1 F88       0.054000
     15 C20         39.4120    97.5530    10.9430 ca         1 F88       0.151900
     16 C21         39.9990    91.4590    12.9270 c3         1 F88       0.143900
     17 C22         34.9790    92.1470    10.5170 c3         1 F88       0.144900
     18 O           33.4480   102.8190    11.7410 o          1 F88      -0.583100
     19 C6          33.0270   102.8310    10.5880 c          1 F88       0.606100
     20 C5          32.1370   103.9760    10.0690 c3         1 F88      -0.063100
     21 C4          29.8440   102.7700    10.4000 cd         1 F88       0.247900
     22 N1          28.6450   102.9730    10.9080 nc         1 F88      -0.520800
     23 N           28.7340   104.2640    11.3890 na         1 F88       0.118800
     24 C           27.6350   104.7820    13.5910 c3         1 F88      -0.112100
     25 N2          33.2840   101.8400     9.6480 ns         1 F88      -0.145000
     26 O1          36.1360    96.9890     9.6430 os         1 F88      -0.372400
     27 N4          38.2340    97.8150    10.3470 nb         1 F88      -0.259000
     28 N3          39.8080    96.3710    11.4560 nb         1 F88      -0.190000
     29 C18         39.2990    94.0770    11.8800 ca         1 F88      -0.187000
     30 C17         38.4070    92.9840    11.7940 ca         1 F88       0.160100
     31 O2          38.7370    91.7330    12.2930 os         1 F88      -0.324100
     32 O3          36.2850    92.0680    11.1160 os         1 F88      -0.327100
     33 H1          27.5440   105.9480    11.7660 h1         1 F88       0.062200
     34 H2          26.6590   104.4150    11.6900 h1         1 F88       0.062200
     35 H3          30.2230   105.8590    11.4960 h4         1 F88       0.159000
     36 H4          33.6500   100.2160     7.6130 ha         1 F88       0.133500
     37 H5          34.9060    98.0750     7.5930 ha         1 F88       0.128500
     38 H6          35.8110    98.5640    11.7850 ha         1 F88       0.128500
     39 H7          34.5760   100.6850    11.8240 ha         1 F88       0.133500
     40 H8          35.8140    94.5720    10.2030 ha         1 F88       0.139000
     41 H9          40.1180    98.3780    11.0150 h5         1 F88       0.050100
     42 H10         40.0450    90.4100    13.2440 h1         1 F88       0.047367
     43 H11         40.8320    91.6420    12.2360 h1         1 F88       0.047367
     44 H12         40.1330    92.0880    13.8170 h1         1 F88       0.047367
     45 H13         34.4770    91.1720    10.5710 h1         1 F88       0.045033
     46 H14         34.3520    92.8790    11.0420 h1         1 F88       0.045033
     47 H15         35.0500    92.4340     9.4610 h1         1 F88       0.045033
     48 H16         32.5690   104.9220    10.4160 hc         1 F88       0.066200
     49 H17         32.1370   103.9650     8.9730 hc         1 F88       0.066200
     50 H18         30.0670   101.8140     9.9410 h4         1 F88       0.034100
     51 H19         26.7580   105.2620    14.0400 hc         1 F88       0.051367
     52 H20         27.6510   103.7310    13.9030 hc         1 F88       0.051367
     53 H21         28.5350   105.2740    13.9800 hc         1 F88       0.051367
     54 H22         32.8620   102.0110     8.7450 hn         1 F88       0.150000
     55 H23         40.2750    93.9650    12.3420 ha         1 F88       0.142000
@<TRIPOS>BOND
     1     1    23 1   
     2     1    24 1   
     3     1    33 1   
     4     1    34 1   
     5     2     3 2   
     6     2    23 1   
     7     2    35 1   
     8     3    20 1   
     9     3    21 1   
    10     4     5 ar  
    11     4     9 ar  
    12     4    25 1   
    13     5     6 ar  
    14     5    36 1   
    15     6     7 ar  
    16     6    37 1   
    17     7     8 ar  
    18     7    26 1   
    19     8     9 ar  
    20     8    38 1   
    21     9    39 1   
    22    10    11 ar  
    23    10    26 1   
    24    10    27 ar  
    25    11    12 ar  
    26    11    14 ar  
    27    12    13 ar  
    28    12    40 1   
    29    13    30 ar  
    30    13    32 1   
    31    14    28 ar  
    32    14    29 ar  
    33    15    27 ar  
    34    15    28 ar  
    35    15    41 1   
    36    16    31 1   
    37    16    42 1   
    38    16    43 1   
    39    16    44 1   
    40    17    32 1   
    41    17    45 1   
    42    17    46 1   
    43    17    47 1   
    44    18    19 2   
    45    19    20 1   
    46    19    25 1   
    47    20    48 1   
    48    20    49 1   
    49    21    22 2   
    50    21    50 1   
    51    22    23 1   
    52    24    51 1   
    53    24    52 1   
    54    24    53 1   
    55    25    54 1   
    56    29    30 ar  
    57    29    55 1   
    58    30    31 1   
@<TRIPOS>SUBSTRUCTURE
     1 F88         1 TEMP              0 ****  ****    0 ROOT
