@<TRIPOS>MOLECULE
F88
   55    58     1     0     0
SMALL
abcg2


@<TRIPOS>ATOM
      1 C1          27.9030   104.8950    12.0130 c3         1 F88       0.090600
      2 C2          30.2820   104.8220    11.1890 cc         1 F88      -0.133000
      3 C3          30.9270   104.1910    10.1410 cd         1 F88      -0.220300
      4 C7          33.9610   100.7370    10.0500 ca         1 F88      -0.016000
      5 C8          34.2810    99.8880     8.9850 ca         1 F88      -0.140500
      6 C9          34.8540    98.6480     9.2170 ca         1 F88      -0.073500
      7 C10         35.1100    98.2560    10.5210 ca         1 F88       0.077100
      8 C11         34.7960    99.0780    11.5880 ca         1 F88      -0.073500
      9 C12         34.2200   100.3220    11.3600 ca         1 F88      -0.140500
     10 C13         36.9560    96.8050    10.8490 ca         1 F88       0.366300
     11 C14         37.4100    95.4830    11.0740 ca         1 F88      -0.140000
     12 C15         36.5610    94.3610    11.2050 ca         1 F88      -0.134000
     13 C16         37.0980    93.1160    11.4130 ca         1 F88       0.110100
     14 C19         38.8140    95.3330    11.1600 ca         1 F88       0.054000
     15 C20         39.0890    97.5690    10.8290 ca         1 F88       0.151900
     16 C21         40.3480    91.4560    11.8130 c3         1 F88       0.143900
     17 C22         34.9620    92.0660    11.4710 c3         1 F88       0.144900
     18 O           33.3440   103.0720    11.7300 o          1 F88      -0.583100
     19 C6          33.0930   103.0320    10.5310 c          1 F88       0.606100
     20 C5          32.3930   104.1890     9.8260 c3         1 F88      -0.063100
     21 C4          29.8960   103.5110     9.4630 cd         1 F88       0.247900
     22 N1          28.7130   103.7120    10.0440 nc         1 F88      -0.520800
     23 N           28.9680   104.5170    11.0930 na         1 F88       0.118800
     24 C           27.5530   103.7760    12.9850 c3         1 F88      -0.112100
     25 N2          33.3720   101.9720     9.7260 ns         1 F88      -0.145000
     26 O1          35.6200    96.9760    10.7590 os         1 F88      -0.372400
     27 N4          37.7640    97.8290    10.7270 nb         1 F88      -0.259000
     28 N3          39.6530    96.4060    11.0350 nb         1 F88      -0.190000
     29 C18         39.3520    94.0480    11.3770 ca         1 F88      -0.187000
     30 C17         38.5230    92.9570    11.5010 ca         1 F88       0.160100
     31 O2          38.9410    91.6950    11.7070 os         1 F88      -0.324100
     32 O3          36.3860    91.9770    11.5490 os         1 F88      -0.327100
     33 H1          28.2460   105.7810    12.5460 h1         1 F88       0.062200
     34 H2          27.0370   105.1760    11.4130 h1         1 F88       0.062200
     35 H3          30.6560   105.4590    11.9730 h4         1 F88       0.159000
     36 H4          34.0770   100.2060     7.9690 ha         1 F88       0.133500
     37 H5          35.1040    97.9900     8.3950 ha         1 F88       0.128500
     38 H6          35.0010    98.7480    12.5980 ha         1 F88       0.128500
     39 H7          33.9740   100.9660    12.1870 ha         1 F88       0.133500
     40 H8          35.4940    94.5010    11.1370 ha         1 F88       0.139000
     41 H9          39.7430    98.4300    10.7270 h5         1 F88       0.050100
     42 H10         40.4530    90.3880    11.9770 h1         1 F88       0.047367
     43 H11         40.8590    91.7450    10.8930 h1         1 F88       0.047367
     44 H12         40.7690    92.0060    12.6580 h1         1 F88       0.047367
     45 H13         34.5940    91.0520    11.6030 h1         1 F88       0.045033
     46 H14         34.5700    92.7090    12.2620 h1         1 F88       0.045033
     47 H15         34.6500    92.4500    10.4970 h1         1 F88       0.045033
     48 H16         32.8580   105.1070    10.1870 hc         1 F88       0.066200
     49 H17         32.5440   104.1340     8.7480 hc         1 F88       0.066200
     50 H18         29.9700   102.8990     8.5760 h4         1 F88       0.034100
     51 H19         26.7520   104.1030    13.6500 hc         1 F88       0.051367
     52 H20         27.2130   102.8890    12.4470 hc         1 F88       0.051367
     53 H21         28.4190   103.5060    13.5910 hc         1 F88       0.051367
     54 H22         33.1410   102.0870     8.7510 hn         1 F88       0.150000
     55 H23         40.4240    93.9490    11.4400 ha         1 F88       0.142000
@<TRIPOS>BOND
     1     1    23 1   
     2     1    24 1   
     3     1    33 1   
     4     1    34 1   
     5     2     3 2   
     6     2    23 1   
     7     2    35 1   
     8     3    20 1   
     9     3    21 1   
    10     4     5 ar  
    11     4     9 ar  
    12     4    25 1   
    13     5     6 ar  
    14     5    36 1   
    15     6     7 ar  
    16     6    37 1   
    17     7     8 ar  
    18     7    26 1   
    19     8     9 ar  
    20     8    38 1   
    21     9    39 1   
    22    10    11 ar  
    23    10    26 1   
    24    10    27 ar  
    25    11    12 ar  
    26    11    14 ar  
    27    12    13 ar  
    28    12    40 1   
    29    13    30 ar  
    30    13    32 1   
    31    14    28 ar  
    32    14    29 ar  
    33    15    27 ar  
    34    15    28 ar  
    35    15    41 1   
    36    16    31 1   
    37    16    42 1   
    38    16    43 1   
    39    16    44 1   
    40    17    32 1   
    41    17    45 1   
    42    17    46 1   
    43    17    47 1   
    44    18    19 2   
    45    19    20 1   
    46    19    25 1   
    47    20    48 1   
    48    20    49 1   
    49    21    22 2   
    50    21    50 1   
    51    22    23 1   
    52    24    51 1   
    53    24    52 1   
    54    24    53 1   
    55    25    54 1   
    56    29    30 ar  
    57    29    55 1   
    58    30    31 1   
@<TRIPOS>SUBSTRUCTURE
     1 F88         1 TEMP              0 ****  ****    0 ROOT
