@<TRIPOS>MOLECULE
F89
   59    63     1     0     0
SMALL
abcg2


@<TRIPOS>ATOM
      1 C1          47.2150    38.2720    23.3540 c          1 F89       0.600600
      2 O1A         46.5560    38.9880    24.1080 o          1 F89      -0.564000
      3 N2          48.4930    37.8980    23.7440 ns         1 F89      -0.397400
      4 C3          49.3530    37.1460    23.0070 cc         1 F89       0.534900
      5 C3M         50.7010    36.8950    23.5960 c3         1 F89      -0.140400
      6 N4          49.0240    36.6750    21.8460 nd         1 F89      -0.654100
      7 C4A         47.7640    36.9640    21.3630 ca         1 F89       0.224400
      8 C5          47.4470    36.4310    20.0850 ca         1 F89      -0.097000
      9 C6          46.2400    36.6760    19.5100 ca         1 F89      -0.081000
     10 C6A         45.2600    37.4680    20.1670 ca         1 F89      -0.057000
     11 C7          44.0200    37.7400    19.5470 ca         1 F89      -0.103000
     12 C8          43.0820    38.5280    20.1630 ca         1 F89      -0.109000
     13 C9          43.3360    39.0640    21.4410 ca         1 F89      -0.125300
     14 C10         44.5290    38.7890    22.0720 ca         1 F89      -0.068000
     15 C1B         45.5350    38.0040    21.4590 ca         1 F89       0.034000
     16 C1A         46.8190    37.7420    22.0540 ca         1 F89      -0.162600
     17 C11         42.3280    39.9980    22.0770 c3         1 F89       0.258100
     18 N12         42.1430    41.2400    21.3270 nu         1 F89      -0.950200
     19 C13         43.2080    42.0770    21.0440 ca         1 F89       0.280000
     20 C14         44.3550    42.1070    21.8560 ca         1 F89      -0.154000
     21 C15         45.3920    42.9500    21.5060 ca         1 F89      -0.027300
     22 C16         45.3180    43.7790    20.3910 ca         1 F89      -0.169600
     23 C17         44.1750    43.7830    19.5950 ca         1 F89      -0.029000
     24 C18         43.1340    42.9330    19.9220 ca         1 F89      -0.213000
     25 C19         46.7360    43.1220    22.1440 c5         1 F89       0.119300
     26 C           46.5950    44.5070    20.2490 c          1 F89       0.572600
     27 O           46.9060    45.3240    19.3750 o          1 F89      -0.590000
     28 N           47.3900    44.0890    21.2690 n          1 F89      -0.343800
     29 CA          48.7770    44.4820    21.4590 c3         1 F89      -0.004300
     30 CT          48.9300    46.0060    21.7650 c          1 F89       0.721000
     31 O1          50.0220    46.5360    21.4460 o          1 F89      -0.743500
     32 O2          47.9790    46.5610    22.3670 o          1 F89      -0.743500
     33 CB          49.6780    43.9640    20.3320 c3         1 F89      -0.050400
     34 CG          49.5440    42.4590    20.0910 c3         1 F89      -0.196400
     35 CD          49.9280    41.5860    21.3010 c          1 F89       0.705000
     36 OE1         49.1300    40.6660    21.6280 o          1 F89      -0.770000
     37 OE2         51.0200    41.8420    21.8720 o          1 F89      -0.770000
     38 HN2         48.7940    38.2580    24.6410 hn         1 F89       0.329500
     39 H3M1        51.2730    36.2460    22.9390 hc         1 F89       0.063033
     40 H3M2        51.2340    37.8400    23.7260 hc         1 F89       0.063033
     41 H3M3        50.6080    36.4300    24.5800 hc         1 F89       0.063033
     42 H5          48.2000    35.8340    19.5870 ha         1 F89       0.121000
     43 H6          46.0070    36.2740    18.5320 ha         1 F89       0.100000
     44 H7          43.8290    37.3180    18.5680 ha         1 F89       0.097000
     45 H8          42.1430    38.7450    19.6670 ha         1 F89       0.095000
     46 H10         44.7220    39.1980    23.0490 ha         1 F89       0.151000
     47 H111        41.3490    39.5200    22.1310 h1         1 F89       0.046200
     48 H112        42.6310    40.2260    23.1000 h1         1 F89       0.046200
     49 HN12        41.4720    41.1640    20.5770 hn         1 F89       0.438000
     50 H14         44.4370    41.4720    22.7240 ha         1 F89       0.116000
     51 H17         44.1070    44.4230    18.7240 ha         1 F89       0.113000
     52 H18         42.2430    42.9020    19.3050 ha         1 F89       0.081000
     53 H191        46.6660    43.5120    23.1650 h1         1 F89       0.089700
     54 H192        47.3030    42.1870    22.1740 h1         1 F89       0.089700
     55 HA          49.0910    43.9900    22.3840 h1         1 F89       0.054700
     56 HB1         49.4460    44.5020    19.4120 hc         1 F89       0.045200
     57 HB2         50.7070    44.2010    20.5940 hc         1 F89       0.045200
     58 HG1         48.5290    42.2090    19.7800 hc         1 F89       0.009200
     59 HG2         50.2090    42.1780    19.2680 hc         1 F89       0.009200
@<TRIPOS>BOND
     1     1     2 2   
     2     1     3 1   
     3     1    16 1   
     4     3     4 1   
     5     3    38 1   
     6     4     5 1   
     7     4     6 2   
     8     5    39 1   
     9     5    40 1   
    10     5    41 1   
    11     6     7 1   
    12     7     8 ar  
    13     7    16 ar  
    14     8     9 ar  
    15     8    42 1   
    16     9    10 ar  
    17     9    43 1   
    18    10    11 ar  
    19    10    15 ar  
    20    11    12 ar  
    21    11    44 1   
    22    12    13 ar  
    23    12    45 1   
    24    13    14 ar  
    25    13    17 1   
    26    14    15 ar  
    27    14    46 1   
    28    15    16 ar  
    29    17    18 1   
    30    17    47 1   
    31    17    48 1   
    32    18    19 1   
    33    18    49 1   
    34    19    20 ar  
    35    19    24 ar  
    36    20    21 ar  
    37    20    50 1   
    38    21    22 ar  
    39    21    25 1   
    40    22    23 ar  
    41    22    26 1   
    42    23    24 ar  
    43    23    51 1   
    44    24    52 1   
    45    25    28 1   
    46    25    53 1   
    47    25    54 1   
    48    26    27 2   
    49    26    28 1   
    50    28    29 1   
    51    29    30 1   
    52    29    33 1   
    53    29    55 1   
    54    30    31 1   
    55    30    32 1   
    56    33    34 1   
    57    33    56 1   
    58    33    57 1   
    59    34    35 1   
    60    34    58 1   
    61    34    59 1   
    62    35    36 1   
    63    35    37 1   
@<TRIPOS>SUBSTRUCTURE
     1 F89         1 TEMP              0 ****  ****    0 ROOT
