@<TRIPOS>MOLECULE
F89
   59    63     1     0     0
SMALL
No Charge or Current Charge


@<TRIPOS>ATOM
      1 C1          47.2620    38.9090    22.6670 c          1 F89       0.600600
      2 O1A         46.6590    39.5720    23.4920 o          1 F89      -0.564000
      3 N2          48.6070    38.8740    22.7110 ns         1 F89      -0.397400
      4 C3          49.3910    38.0470    21.9710 cc         1 F89       0.534900
      5 C3M         50.8570    38.1560    22.2670 c3         1 F89      -0.140400
      6 N4          48.9390    37.1990    21.0560 nd         1 F89      -0.654100
      7 C4A         47.5460    37.2450    20.8530 ca         1 F89       0.224400
      8 C5          47.0570    36.4090    19.8380 ca         1 F89      -0.097000
      9 C6          45.7030    36.4030    19.4940 ca         1 F89      -0.081000
     10 C6A         44.8070    37.2480    20.1620 ca         1 F89      -0.057000
     11 C7          43.4600    37.2660    19.7500 ca         1 F89      -0.103000
     12 C8          42.5420    38.1350    20.3540 ca         1 F89      -0.109000
     13 C9          42.9610    38.9750    21.3980 ca         1 F89      -0.125300
     14 C10         44.2960    38.9160    21.8380 ca         1 F89      -0.068000
     15 C1B         45.2590    38.0810    21.2180 ca         1 F89       0.034000
     16 C1A         46.6490    38.0700    21.5780 ca         1 F89      -0.162600
     17 C11         41.9990    39.9760    22.0350 c3         1 F89       0.258100
     18 N12         42.0350    41.2650    21.3160 nu         1 F89      -0.950200
     19 C13         43.1910    42.0000    21.0430 ca         1 F89       0.280000
     20 C14         44.2140    42.1460    22.0050 ca         1 F89      -0.154000
     21 C15         45.4010    42.8020    21.6460 ca         1 F89      -0.027300
     22 C16         45.5360    43.3480    20.3850 ca         1 F89      -0.169600
     23 C17         44.5210    43.2670    19.4220 ca         1 F89      -0.029000
     24 C18         43.3410    42.5740    19.7630 ca         1 F89      -0.213000
     25 C19         46.6550    42.9960    22.4890 c5         1 F89       0.119300
     26 C           46.8720    43.9650    20.2810 c          1 F89       0.572600
     27 O           47.3210    44.5710    19.3170 o          1 F89      -0.590000
     28 N           47.5290    43.6950    21.4950 n          1 F89      -0.343800
     29 CA          48.8880    44.2280    21.8000 c3         1 F89      -0.004300
     30 CT          49.0110    45.7800    21.6020 c          1 F89       0.721000
     31 O1          49.8570    46.2340    20.8410 o          1 F89      -0.743500
     32 O2          48.2800    46.4980    22.2730 o          1 F89      -0.743500
     33 CB          50.0200    43.4140    21.1010 c3         1 F89      -0.050400
     34 CG          50.0930    41.8960    21.4280 c3         1 F89      -0.196400
     35 CD          50.5300    41.6470    22.8850 c          1 F89       0.705000
     36 OE1         49.6720    41.3920    23.7130 o          1 F89      -0.770000
     37 OE2         51.7220    41.6890    23.1440 o          1 F89      -0.770000
     38 HN2         49.0400    39.5240    23.3580 hn         1 F89       0.329500
     39 H3M1        51.3720    37.2160    22.0390 hc         1 F89       0.063033
     40 H3M2        51.3130    38.9450    21.6590 hc         1 F89       0.063033
     41 H3M3        51.0380    38.3870    23.3230 hc         1 F89       0.063033
     42 H5          47.7450    35.7680    19.2930 ha         1 F89       0.121000
     43 H6          45.3570    35.7590    18.6880 ha         1 F89       0.100000
     44 H7          43.1280    36.6240    18.9370 ha         1 F89       0.097000
     45 H8          41.5130    38.1650    20.0050 ha         1 F89       0.095000
     46 H10         44.5540    39.5660    22.6550 ha         1 F89       0.151000
     47 H111        40.9790    39.5660    22.0210 h1         1 F89       0.046200
     48 H112        42.2730    40.1250    23.0890 h1         1 F89       0.046200
     49 HN12        41.3200    41.3610    20.5950 hn         1 F89       0.438000
     50 H14         44.0990    41.7360    23.0040 ha         1 F89       0.116000
     51 H17         44.6500    43.7030    18.4340 ha         1 F89       0.113000
     52 H18         42.5530    42.4690    19.0230 ha         1 F89       0.081000
     53 H191        46.4590    43.6180    23.3730 h1         1 F89       0.089700
     54 H192        47.0860    42.0400    22.8080 h1         1 F89       0.089700
     55 HA          49.0380    44.0880    22.8780 h1         1 F89       0.054700
     56 HB1         49.9070    43.5270    20.0160 hc         1 F89       0.045200
     57 HB2         50.9880    43.8620    21.3560 hc         1 F89       0.045200
     58 HG1         49.1030    41.4670    21.2280 hc         1 F89       0.009200
     59 HG2         50.8680    41.5200    20.7480 hc         1 F89       0.009200
@<TRIPOS>BOND
     1     1     2 2   
     2     1     3 1   
     3     1    16 1   
     4     3     4 1   
     5     3    38 1   
     6     4     5 1   
     7     4     6 2   
     8     5    39 1   
     9     5    40 1   
    10     5    41 1   
    11     6     7 1   
    12     7     8 ar  
    13     7    16 ar  
    14     8     9 ar  
    15     8    42 1   
    16     9    10 ar  
    17     9    43 1   
    18    10    11 ar  
    19    10    15 ar  
    20    11    12 ar  
    21    11    44 1   
    22    12    13 ar  
    23    12    45 1   
    24    13    14 ar  
    25    13    17 1   
    26    14    15 ar  
    27    14    46 1   
    28    15    16 ar  
    29    17    18 1   
    30    17    47 1   
    31    17    48 1   
    32    18    19 1   
    33    18    49 1   
    34    19    20 ar  
    35    19    24 ar  
    36    20    21 ar  
    37    20    50 1   
    38    21    22 ar  
    39    21    25 1   
    40    22    23 ar  
    41    22    26 1   
    42    23    24 ar  
    43    23    51 1   
    44    24    52 1   
    45    25    28 1   
    46    25    53 1   
    47    25    54 1   
    48    26    27 2   
    49    26    28 1   
    50    28    29 1   
    51    29    30 1   
    52    29    33 1   
    53    29    55 1   
    54    30    31 1   
    55    30    32 1   
    56    33    34 1   
    57    33    56 1   
    58    33    57 1   
    59    34    35 1   
    60    34    58 1   
    61    34    59 1   
    62    35    36 1   
    63    35    37 1   
@<TRIPOS>SUBSTRUCTURE
     1 F89         1 TEMP              0 ****  ****    0 ROOT
