@<TRIPOS>MOLECULE
F8A
   44    47     1     0     0
SMALL
No Charge or Current Charge


@<TRIPOS>ATOM
      1 F27          1.8630    -1.6870     2.6900 f          1 F8A      -0.103667
      2 C24          1.2520    -1.1890     1.5900 c3         1 F8A       0.351300
      3 F25          0.1690    -1.9720     1.3910 f          1 F8A      -0.103667
      4 F26          0.8020     0.0390     1.9320 f          1 F8A      -0.103667
      5 C19          2.1930    -1.1320     0.3650 ca         1 F8A      -0.171300
      6 C20          3.5920    -1.1800     0.5850 ca         1 F8A      -0.075000
      7 C21          4.4990    -1.1320    -0.4850 ca         1 F8A      -0.133000
      8 C22          4.0280    -1.0320    -1.7980 ca         1 F8A      -0.093000
      9 C23          2.6500    -0.9700    -2.0400 ca         1 F8A      -0.125000
     10 C18          1.7200    -1.0070    -0.9780 ca         1 F8A      -0.023300
     11 C17          0.2340    -0.9060    -1.3490 c3         1 F8A       0.095900
     12 N9          -0.4750     0.2940    -0.8440 na         1 F8A      -0.072700
     13 C8           0.0730     1.5880    -0.6930 cc         1 F8A      -0.079300
     14 C16          1.4150     2.1170    -1.1510 c6         1 F8A      -0.009200
     15 C15          1.4500     3.6620    -1.0550 c6         1 F8A      -0.066400
     16 C14          0.8670     4.1530     0.2940 c6         1 F8A      -0.072400
     17 C13         -0.6220     3.7460     0.4480 c6         1 F8A       0.009800
     18 C7          -0.8540     2.3010     0.0500 cd         1 F8A      -0.151400
     19 C1          -1.7710     0.2580    -0.3000 ca         1 F8A       0.007800
     20 C6          -2.0050     1.4730     0.3030 ca         1 F8A      -0.103800
     21 C5          -3.1880     1.7750     0.9850 ca         1 F8A      -0.106000
     22 C4          -4.1830     0.7840     1.0380 ca         1 F8A      -0.149000
     23 C3          -3.9870    -0.4550     0.3890 ca         1 F8A      -0.098000
     24 C2          -2.7860    -0.7380    -0.3100 ca         1 F8A      -0.123600
     25 C10         -2.6860    -2.0410    -1.0590 c          1 F8A       0.716600
     26 O12         -2.8570    -3.0790    -0.4360 o          1 F8A      -0.720500
     27 O11         -2.5110    -2.0010    -2.2680 o          1 F8A      -0.720500
     28 H20          3.9940    -1.2530     1.5930 ha         1 F8A       0.122000
     29 H21          5.5680    -1.1730    -0.2920 ha         1 F8A       0.107000
     30 H22          4.7310    -0.9960    -2.6280 ha         1 F8A       0.106000
     31 H23          2.3020    -0.8820    -3.0660 ha         1 F8A       0.115000
     32 H17          0.1210    -0.9220    -2.4390 h1         1 F8A       0.102700
     33 H17A        -0.2450    -1.8120    -0.9730 h1         1 F8A       0.102700
     34 H16          2.2160     1.7050    -0.5210 hc         1 F8A       0.041200
     35 H16A         1.6330     1.8050    -2.1810 hc         1 F8A       0.041200
     36 H15          2.4820     4.0190    -1.1730 hc         1 F8A       0.030700
     37 H15A         0.8720     4.0960    -1.8830 hc         1 F8A       0.030700
     38 H14          1.4520     3.7270     1.1210 hc         1 F8A       0.029700
     39 H14A         0.9630     5.2440     0.3730 hc         1 F8A       0.029700
     40 H13         -0.9440     3.9170     1.4840 hc         1 F8A       0.033700
     41 H13A        -1.2430     4.4000    -0.1790 hc         1 F8A       0.033700
     42 H5          -3.3370     2.7450     1.4520 ha         1 F8A       0.087000
     43 H4          -5.1170     0.9820     1.5590 ha         1 F8A       0.086000
     44 H3          -4.7830    -1.1960     0.4100 ha         1 F8A       0.121000
@<TRIPOS>BOND
     1     1     2 1   
     2     2     3 1   
     3     2     4 1   
     4     2     5 1   
     5     5     6 ar  
     6     5    10 ar  
     7     6     7 ar  
     8     6    28 1   
     9     7     8 ar  
    10     7    29 1   
    11     8     9 ar  
    12     8    30 1   
    13     9    10 ar  
    14     9    31 1   
    15    10    11 1   
    16    11    12 1   
    17    11    32 1   
    18    11    33 1   
    19    12    13 1   
    20    12    19 1   
    21    13    14 1   
    22    13    18 2   
    23    14    15 1   
    24    14    34 1   
    25    14    35 1   
    26    15    16 1   
    27    15    36 1   
    28    15    37 1   
    29    16    17 1   
    30    16    38 1   
    31    16    39 1   
    32    17    18 1   
    33    17    40 1   
    34    17    41 1   
    35    18    20 1   
    36    19    20 ar  
    37    19    24 ar  
    38    20    21 ar  
    39    21    22 ar  
    40    21    42 1   
    41    22    23 ar  
    42    22    43 1   
    43    23    24 ar  
    44    23    44 1   
    45    24    25 1   
    46    25    26 1   
    47    25    27 1   
@<TRIPOS>SUBSTRUCTURE
     1 F8A         1 TEMP              0 ****  ****    0 ROOT
