@<TRIPOS>MOLECULE
F8A
   44    47     1     0     0
SMALL
abcg2


@<TRIPOS>ATOM
      1 F27          1.4940    -1.9520     2.4790 f          1 F8A      -0.103667
      2 C24          1.0200    -1.3240     1.3930 c3         1 F8A       0.351300
      3 F25         -0.0460    -2.0280     0.9950 f          1 F8A      -0.103667
      4 F26          0.5780    -0.1330     1.8160 f          1 F8A      -0.103667
      5 C19          2.0570    -1.2010     0.3160 ca         1 F8A      -0.171300
      6 C20          3.3880    -1.3920     0.6780 ca         1 F8A      -0.075000
      7 C21          4.4040    -1.3100    -0.2610 ca         1 F8A      -0.133000
      8 C22          4.0870    -1.0410    -1.5810 ca         1 F8A      -0.093000
      9 C23          2.7650    -0.8350    -1.9380 ca         1 F8A      -0.125000
     10 C18          1.7260    -0.8950    -1.0130 ca         1 F8A      -0.023300
     11 C17          0.3290    -0.6590    -1.5530 c3         1 F8A       0.095900
     12 N9          -0.4370     0.3640    -0.8750 na         1 F8A      -0.072700
     13 C8           0.0370     1.6520    -0.7140 cc         1 F8A      -0.079300
     14 C16          1.3220     2.1700    -1.2660 c6         1 F8A      -0.009200
     15 C15          1.3240     3.6990    -1.2000 c6         1 F8A      -0.066400
     16 C14          0.8340     4.2070     0.1520 c6         1 F8A      -0.072400
     17 C13         -0.6250     3.8190     0.3910 c6         1 F8A       0.009800
     18 C7          -0.8430     2.3900     0.0140 cd         1 F8A      -0.151400
     19 C1          -1.6770     0.2670    -0.2660 ca         1 F8A       0.007800
     20 C6          -1.9370     1.5320     0.3220 ca         1 F8A      -0.103800
     21 C5          -3.1010     1.7580     1.0580 ca         1 F8A      -0.106000
     22 C4          -3.9910     0.7180     1.2220 ca         1 F8A      -0.149000
     23 C3          -3.7300    -0.5250     0.6370 ca         1 F8A      -0.098000
     24 C2          -2.6040    -0.7850    -0.1370 ca         1 F8A      -0.123600
     25 C10         -2.5670    -2.1340    -0.8400 c          1 F8A       0.716600
     26 O12         -2.9550    -3.1180    -0.1880 o          1 F8A      -0.720500
     27 O11         -2.2080    -2.1300    -2.0370 o          1 F8A      -0.720500
     28 H20          3.6500    -1.6170     1.7020 ha         1 F8A       0.122000
     29 H21          5.4300    -1.4620     0.0430 ha         1 F8A       0.107000
     30 H22          4.8640    -0.9810    -2.3320 ha         1 F8A       0.106000
     31 H23          2.5280    -0.6010    -2.9690 ha         1 F8A       0.115000
     32 H17          0.4310    -0.3830    -2.6060 h1         1 F8A       0.102700
     33 H17A        -0.2470    -1.5760    -1.5590 h1         1 F8A       0.102700
     34 H16          2.1710     1.7760    -0.6990 hc         1 F8A       0.041200
     35 H16A         1.4720     1.8450    -2.3000 hc         1 F8A       0.041200
     36 H15          2.3340     4.0630    -1.4000 hc         1 F8A       0.030700
     37 H15A         0.6850     4.1000    -1.9920 hc         1 F8A       0.030700
     38 H14          1.4580     3.7820     0.9440 hc         1 F8A       0.029700
     39 H14A         0.9460     5.2920     0.2110 hc         1 F8A       0.029700
     40 H13         -0.8940     3.9840     1.4380 hc         1 F8A       0.033700
     41 H13A        -1.2830     4.4740    -0.1930 hc         1 F8A       0.033700
     42 H5          -3.2930     2.7320     1.4950 ha         1 F8A       0.087000
     43 H4          -4.8990     0.8580     1.7960 ha         1 F8A       0.086000
     44 H3          -4.4500    -1.3220     0.7710 ha         1 F8A       0.121000
@<TRIPOS>BOND
     1     1     2 1   
     2     2     3 1   
     3     2     4 1   
     4     2     5 1   
     5     5     6 ar  
     6     5    10 ar  
     7     6     7 ar  
     8     6    28 1   
     9     7     8 ar  
    10     7    29 1   
    11     8     9 ar  
    12     8    30 1   
    13     9    10 ar  
    14     9    31 1   
    15    10    11 1   
    16    11    12 1   
    17    11    32 1   
    18    11    33 1   
    19    12    13 1   
    20    12    19 1   
    21    13    14 1   
    22    13    18 2   
    23    14    15 1   
    24    14    34 1   
    25    14    35 1   
    26    15    16 1   
    27    15    36 1   
    28    15    37 1   
    29    16    17 1   
    30    16    38 1   
    31    16    39 1   
    32    17    18 1   
    33    17    40 1   
    34    17    41 1   
    35    18    20 1   
    36    19    20 ar  
    37    19    24 ar  
    38    20    21 ar  
    39    21    22 ar  
    40    21    42 1   
    41    22    23 ar  
    42    22    43 1   
    43    23    24 ar  
    44    23    44 1   
    45    24    25 1   
    46    25    26 1   
    47    25    27 1   
@<TRIPOS>SUBSTRUCTURE
     1 F8A         1 TEMP              0 ****  ****    0 ROOT
