@<TRIPOS>MOLECULE
F8B
   57    60     1     0     0
SMALL
abcg2


@<TRIPOS>ATOM
      1 C1           9.1850    -1.0960     1.0770 c3         1 F8B      -0.079000
      2 C2          10.5690    -0.6390     0.6140 c3         1 F8B      -0.087100
      3 C3           8.1270    -0.1710     0.5660 cc         1 F8B       0.217300
      4 C7           1.6860     0.7230    -1.1440 ca         1 F8B      -0.021000
      5 C8           1.2220     0.0250    -0.0280 ca         1 F8B      -0.139000
      6 C9          -0.1340    -0.2330     0.1100 ca         1 F8B      -0.075500
      7 C10         -1.0280     0.2000    -0.8510 ca         1 F8B       0.087100
      8 C11         -0.5850     0.9000    -1.9580 ca         1 F8B      -0.075500
      9 C12          0.7670     1.1550    -2.1020 ca         1 F8B      -0.139000
     10 C13         -3.1650     0.6270     0.0160 ca         1 F8B       0.367300
     11 C14         -4.5090     0.2010     0.1370 ca         1 F8B      -0.140000
     12 C15         -5.0420    -0.9500    -0.4840 ca         1 F8B      -0.140000
     13 C16         -6.3570    -1.2770    -0.2960 ca         1 F8B       0.112100
     14 C19         -5.3180     1.0170     0.9460 ca         1 F8B       0.056000
     15 C20         -3.5710     2.3960     1.3500 ca         1 F8B       0.155900
     16 C21         -9.3390    -0.1160     1.4480 c3         1 F8B       0.141900
     17 C22         -6.2190    -3.2090    -1.6430 c3         1 F8B       0.142900
     18 O            4.1240    -0.0220     0.3270 o          1 F8B      -0.545100
     19 C6           4.1250     0.6550    -0.6790 c          1 F8B       0.591100
     20 N            6.5510     0.8280    -0.4920 na         1 F8B       0.127800
     21 C4           7.2180    -0.3390    -0.4470 cd         1 F8B      -0.194000
     22 N1           6.9910     1.6600     0.4350 nd         1 F8B      -0.195800
     23 N2           7.9430     1.0720     1.0700 nc         1 F8B      -0.353000
     24 C            8.9130    -2.5380     0.6640 c3         1 F8B      -0.087100
     25 N3           3.0310     1.0310    -1.3780 ns         1 F8B      -0.144000
     26 O1          -2.3660    -0.1260    -0.7450 os         1 F8B      -0.366400
     27 N5          -2.7020     1.6920     0.6030 nb         1 F8B      -0.266000
     28 N4          -4.8280     2.1280     1.5530 nb         1 F8B      -0.189000
     29 C18         -6.6720     0.6690     1.1310 ca         1 F8B      -0.191000
     30 C17         -7.1890    -0.4490     0.5290 ca         1 F8B       0.161100
     31 O2          -8.4500    -0.8670     0.6390 os         1 F8B      -0.315100
     32 O3          -6.9770    -2.3380    -0.8250 os         1 F8B      -0.318100
     33 H1           9.1620    -1.0390     2.1690 hc         1 F8B       0.069700
     34 H2          10.7690     0.3900     0.9140 hc         1 F8B       0.036367
     35 H3          11.3470    -1.2700     1.0450 hc         1 F8B       0.036367
     36 H4          10.6540    -0.6950    -0.4730 hc         1 F8B       0.036367
     37 H5           1.8980    -0.3230     0.7350 ha         1 F8B       0.132500
     38 H6          -0.4840    -0.7810     0.9760 ha         1 F8B       0.130500
     39 H7          -1.2830     1.2370    -2.7130 ha         1 F8B       0.130500
     40 H8           1.1110     1.6960    -2.9750 ha         1 F8B       0.132500
     41 H9          -4.4020    -1.5630    -1.1020 ha         1 F8B       0.138000
     42 H10         -3.1660     3.2810     1.8290 h5         1 F8B       0.050100
     43 H11        -10.2960    -0.6290     1.4100 h1         1 F8B       0.046367
     44 H12         -8.9980    -0.0730     2.4850 h1         1 F8B       0.046367
     45 H13         -9.4650     0.9010     1.0710 h1         1 F8B       0.046367
     46 H14         -6.8950    -3.9960    -1.9670 h1         1 F8B       0.043700
     47 H15         -5.8240    -2.6940    -2.5230 h1         1 F8B       0.043700
     48 H16         -5.3880    -3.6580    -1.0930 h1         1 F8B       0.043700
     49 H17          5.5490     0.7550    -2.3000 h1         1 F8B       0.088700
     50 H18          5.3880     2.2590    -1.4030 h1         1 F8B       0.088700
     51 H19          7.0060    -1.1570    -1.1150 h4         1 F8B       0.166000
     52 H20          8.9390    -2.6530    -0.4210 hc         1 F8B       0.036367
     53 H21          9.6710    -3.2020     1.0800 hc         1 F8B       0.036367
     54 H22          7.9390    -2.8810     1.0160 hc         1 F8B       0.036367
     55 H23          3.1980     1.5880    -2.2040 hn         1 F8B       0.151000
     56 H24         -7.2770     1.3090     1.7600 ha         1 F8B       0.143000
     57 C5           5.4190     1.1740    -1.3010 c3         1 F8B      -0.012400
@<TRIPOS>BOND
     1     1     2 1   
     2     1     3 1   
     3     1    24 1   
     4     1    33 1   
     5     2    34 1   
     6     2    35 1   
     7     2    36 1   
     8     3    21 2   
     9     3    23 1   
    10     4     5 ar  
    11     4     9 ar  
    12     4    25 1   
    13     5     6 ar  
    14     5    37 1   
    15     6     7 ar  
    16     6    38 1   
    17     7     8 ar  
    18     7    26 1   
    19     8     9 ar  
    20     8    39 1   
    21     9    40 1   
    22    10    11 ar  
    23    10    26 1   
    24    10    27 ar  
    25    11    12 ar  
    26    11    14 ar  
    27    12    13 ar  
    28    12    41 1   
    29    13    30 ar  
    30    13    32 1   
    31    14    28 ar  
    32    14    29 ar  
    33    15    27 ar  
    34    15    28 ar  
    35    15    42 1   
    36    16    31 1   
    37    16    43 1   
    38    16    44 1   
    39    16    45 1   
    40    17    32 1   
    41    17    46 1   
    42    17    47 1   
    43    17    48 1   
    44    18    19 2   
    45    19    25 1   
    46    19    57 1   
    47    20    21 1   
    48    20    22 1   
    49    20    57 1   
    50    21    51 1   
    51    22    23 2   
    52    24    52 1   
    53    24    53 1   
    54    24    54 1   
    55    25    55 1   
    56    29    30 ar  
    57    29    56 1   
    58    30    31 1   
    59    49    57 1   
    60    50    57 1   
@<TRIPOS>SUBSTRUCTURE
     1 F8B         1 TEMP              0 ****  ****    0 ROOT
