@<TRIPOS>MOLECULE
F8B
   57    60     1     0     0
SMALL
No Charge or Current Charge


@<TRIPOS>ATOM
      1 C1           9.2590    -0.8100     1.3820 c3         1 F8B      -0.079000
      2 C2          10.6110    -0.7980     0.6330 c3         1 F8B      -0.087100
      3 C3           8.1900    -0.0800     0.6010 cc         1 F8B       0.217300
      4 C7           1.5880     0.6810    -1.5890 ca         1 F8B      -0.021000
      5 C8           0.9600     0.1970    -0.4180 ca         1 F8B      -0.139000
      6 C9          -0.4420     0.2010    -0.3090 ca         1 F8B      -0.075500
      7 C10         -1.2330     0.6950    -1.3630 ca         1 F8B       0.087100
      8 C11         -0.6180     1.1610    -2.5340 ca         1 F8B      -0.075500
      9 C12          0.7840     1.1570    -2.6430 ca         1 F8B      -0.139000
     10 C13         -3.3000     1.0750    -0.1540 ca         1 F8B       0.367300
     11 C14         -4.5510     0.4750     0.1310 ca         1 F8B      -0.140000
     12 C15         -5.1050    -0.5280    -0.6950 ca         1 F8B      -0.140000
     13 C16         -6.3540    -1.1050    -0.3740 ca         1 F8B       0.112100
     14 C19         -5.2430     0.9090     1.2860 ca         1 F8B       0.056000
     15 C20         -3.5270     2.3850     1.7170 ca         1 F8B       0.155900
     16 C21         -9.0490    -0.8810     2.2260 c3         1 F8B       0.141900
     17 C22         -6.2990    -2.5960    -2.3520 c3         1 F8B       0.142900
     18 O            3.9320    -0.0650     0.1940 o          1 F8B      -0.545100
     19 C6           4.0620     0.3620    -0.9490 c          1 F8B       0.591100
     20 N            6.5550     0.5120    -0.6620 na         1 F8B       0.127800
     21 C4           7.2630    -0.5940    -0.2530 cd         1 F8B      -0.194000
     22 N1           7.0540     1.6450    -0.0740 nd         1 F8B      -0.195800
     23 N2           8.0470     1.2760     0.6960 nc         1 F8B      -0.353000
     24 C            8.8390    -2.2500     1.7590 c3         1 F8B      -0.087100
     25 N3           2.9990     0.7090    -1.7750 ns         1 F8B      -0.144000
     26 O1          -2.6080     0.6900    -1.2860 os         1 F8B      -0.366400
     27 N5          -2.7940     2.0410     0.6420 nb         1 F8B      -0.266000
     28 N4          -4.7190     1.8680     2.0770 nb         1 F8B      -0.189000
     29 C18         -6.4850     0.3320     1.6010 ca         1 F8B      -0.191000
     30 C17         -7.0470    -0.6720     0.7810 ca         1 F8B       0.161100
     31 O2          -8.2700    -1.2530     1.0750 os         1 F8B      -0.315100
     32 O3          -6.9280    -2.0920    -1.1610 os         1 F8B      -0.318100
     33 H1           9.4100    -0.2700     2.3250 hc         1 F8B       0.069700
     34 H2          10.9310     0.2310     0.4300 hc         1 F8B       0.036367
     35 H3          11.3910    -1.2840     1.2300 hc         1 F8B       0.036367
     36 H4          10.5290    -1.3260    -0.3250 hc         1 F8B       0.036367
     37 H5           1.5350    -0.1910     0.4160 ha         1 F8B       0.132500
     38 H6          -0.9120    -0.1850     0.5930 ha         1 F8B       0.130500
     39 H7          -1.2280     1.5280    -3.3550 ha         1 F8B       0.130500
     40 H8           1.2460     1.5280    -3.5570 ha         1 F8B       0.132500
     41 H9          -4.5590    -0.8500    -1.5770 ha         1 F8B       0.138000
     42 H10         -3.1170     3.1610     2.3620 h5         1 F8B       0.050100
     43 H11         -9.9760    -1.4660     2.2620 h1         1 F8B       0.046367
     44 H12         -8.4920    -1.0700     3.1520 h1         1 F8B       0.046367
     45 H13         -9.3200     0.1820     2.1860 h1         1 F8B       0.046367
     46 H14         -6.9270    -3.3680    -2.8150 h1         1 F8B       0.043700
     47 H15         -6.1520    -1.7940    -3.0860 h1         1 F8B       0.043700
     48 H16         -5.3250    -3.0460    -2.1200 h1         1 F8B       0.043700
     49 H17          5.5610    -0.2200    -2.3650 h1         1 F8B       0.088700
     50 H18          5.4330     1.5330    -2.1120 h1         1 F8B       0.088700
     51 H19          7.0620    -1.6050    -0.5800 h4         1 F8B       0.166000
     52 H20          8.7160    -2.8720     0.8640 hc         1 F8B       0.036367
     53 H21          9.5950    -2.7190     2.4000 hc         1 F8B       0.036367
     54 H22          7.8880    -2.2430     2.3070 hc         1 F8B       0.036367
     55 H23          3.2780     1.0470    -2.6870 hn         1 F8B       0.151000
     56 H24         -7.0000     0.6790     2.4920 ha         1 F8B       0.143000
     57 C5           5.4310     0.5600    -1.6070 c3         1 F8B      -0.012400
@<TRIPOS>BOND
     1     1     2 1   
     2     1     3 1   
     3     1    24 1   
     4     1    33 1   
     5     2    34 1   
     6     2    35 1   
     7     2    36 1   
     8     3    21 2   
     9     3    23 1   
    10     4     5 ar  
    11     4     9 ar  
    12     4    25 1   
    13     5     6 ar  
    14     5    37 1   
    15     6     7 ar  
    16     6    38 1   
    17     7     8 ar  
    18     7    26 1   
    19     8     9 ar  
    20     8    39 1   
    21     9    40 1   
    22    10    11 ar  
    23    10    26 1   
    24    10    27 ar  
    25    11    12 ar  
    26    11    14 ar  
    27    12    13 ar  
    28    12    41 1   
    29    13    30 ar  
    30    13    32 1   
    31    14    28 ar  
    32    14    29 ar  
    33    15    27 ar  
    34    15    28 ar  
    35    15    42 1   
    36    16    31 1   
    37    16    43 1   
    38    16    44 1   
    39    16    45 1   
    40    17    32 1   
    41    17    46 1   
    42    17    47 1   
    43    17    48 1   
    44    18    19 2   
    45    19    25 1   
    46    19    57 1   
    47    20    21 1   
    48    20    22 1   
    49    20    57 1   
    50    21    51 1   
    51    22    23 2   
    52    24    52 1   
    53    24    53 1   
    54    24    54 1   
    55    25    55 1   
    56    29    30 ar  
    57    29    56 1   
    58    30    31 1   
    59    49    57 1   
    60    50    57 1   
@<TRIPOS>SUBSTRUCTURE
     1 F8B         1 TEMP              0 ****  ****    0 ROOT
