@<TRIPOS>MOLECULE
F8D
   32    34     1     0     0
SMALL
No Charge or Current Charge


@<TRIPOS>ATOM
      1 C13         -3.0220     1.3420     0.7570 ca         1 F8D      -0.063000
      2 C17         -0.6570     0.3880    -0.3970 ca         1 F8D      -0.186300
      3 C01          1.6690    -3.0280     1.3010 c3         1 F8D      -0.174100
      4 C02          1.0440    -2.2120     0.1690 c          1 F8D       0.613100
      5 O03          0.2920    -2.7460    -0.6350 o          1 F8D      -0.608100
      6 N04          1.3660    -0.8440     0.0660 n          1 F8D      -0.418800
      7 C05          2.3000    -0.1390     0.9740 c5         1 F8D       0.108000
      8 C06          2.7260     1.0880     0.1140 c5         1 F8D      -0.089700
      9 C07          3.8700     0.7770    -0.8810 c3         1 F8D       0.167600
     10 O08          5.0810     0.4950    -0.1710 oh         1 F8D      -0.662000
     11 C09          1.3930     1.4600    -0.5960 c5         1 F8D       0.142300
     12 O10          0.5550     2.1960     0.3620 os         1 F8D      -0.325100
     13 C11         -0.6610     1.5760     0.3000 ca         1 F8D       0.130100
     14 C12         -1.8260     2.0750     0.8970 ca         1 F8D      -0.135000
     15 C14         -3.0280     0.1330     0.0280 ca         1 F8D       0.075000
     16 Cl15        -4.5260    -0.7730    -0.1490 cl         1 F8D      -0.203000
     17 C16         -1.8420    -0.3530    -0.5570 ca         1 F8D      -0.021000
     18 C18          0.7180     0.0690    -0.9030 c5         1 F8D       0.142000
     19 H131        -3.9420     1.7090     1.2070 ha         1 F8D       0.130000
     20 H012         1.5110    -2.5120     2.2540 hc         1 F8D       0.062367
     21 H013         1.2950    -4.0580     1.3310 hc         1 F8D       0.062367
     22 H011         2.7580    -3.0120     1.1920 hc         1 F8D       0.062367
     23 H051         1.7790     0.1750     1.8890 h1         1 F8D       0.063200
     24 H052         3.1640    -0.7500     1.2650 h1         1 F8D       0.063200
     25 H061         3.0780     1.9110     0.7460 hc         1 F8D       0.095700
     26 H072         3.5880    -0.0770    -1.5120 h1         1 F8D       0.026200
     27 H071         4.0140     1.6450    -1.5380 h1         1 F8D       0.026200
     28 H081         5.7760     0.3230    -0.8450 ho         1 F8D       0.450000
     29 H091         1.5280     2.0730    -1.4970 h1         1 F8D       0.081700
     30 H121        -1.8050     3.0100     1.4510 ha         1 F8D       0.134000
     31 H161        -1.8490    -1.2850    -1.1170 ha         1 F8D       0.153000
     32 H181         0.7740    -0.2530    -1.9530 h1         1 F8D       0.098700
@<TRIPOS>BOND
     1     1    14 ar  
     2     1    15 ar  
     3     1    19 1   
     4     2    13 ar  
     5     2    17 ar  
     6     2    18 1   
     7     3     4 1   
     8     3    20 1   
     9     3    21 1   
    10     3    22 1   
    11     4     5 2   
    12     4     6 1   
    13     6     7 1   
    14     6    18 1   
    15     7     8 1   
    16     7    23 1   
    17     7    24 1   
    18     8     9 1   
    19     8    11 1   
    20     8    25 1   
    21     9    10 1   
    22     9    26 1   
    23     9    27 1   
    24    10    28 1   
    25    11    12 1   
    26    11    18 1   
    27    11    29 1   
    28    12    13 1   
    29    13    14 ar  
    30    14    30 1   
    31    15    16 1   
    32    15    17 ar  
    33    17    31 1   
    34    18    32 1   
@<TRIPOS>SUBSTRUCTURE
     1 F8D         1 TEMP              0 ****  ****    0 ROOT
