@<TRIPOS>MOLECULE
F8D
   32    34     1     0     0
SMALL
bcc


@<TRIPOS>ATOM
      1 C13         -3.0100     1.5040     0.7110 ca         1 F8D      -0.081000
      2 C17         -0.7330     0.3630    -0.3560 ca         1 F8D      -0.186300
      3 C01          1.9410    -3.0430     1.0520 c3         1 F8D      -0.174100
      4 C02          1.1610    -2.2140     0.0620 c          1 F8D       0.680100
      5 O03          0.3880    -2.7190    -0.7440 o          1 F8D      -0.608100
      6 N04          1.3580    -0.8820     0.1010 n          1 F8D      -0.485800
      7 C05          2.2110    -0.1410     1.0140 c5         1 F8D       0.108000
      8 C06          2.6370     1.0640     0.1810 c5         1 F8D      -0.089700
      9 C07          3.8080     0.7530    -0.7390 c3         1 F8D       0.144400
     10 O08          4.9290     0.4460     0.0540 oh         1 F8D      -0.599800
     11 C09          1.3910     1.3660    -0.6420 c5         1 F8D       0.119100
     12 O10          0.5040     2.2340     0.0800 os         1 F8D      -0.301900
     13 C11         -0.7050     1.6470     0.1650 ca         1 F8D       0.130100
     14 C12         -1.8310     2.2400     0.7090 ca         1 F8D      -0.153000
     15 C14         -3.0380     0.2220     0.1790 ca         1 F8D      -0.016600
     16 CL15        -4.5320    -0.6650     0.1900 cl         1 F8D      -0.111400
     17 C16         -1.9030    -0.3700    -0.3610 ca         1 F8D      -0.039000
     18 C18          0.6580     0.0150    -0.8080 c5         1 F8D       0.142000
     19 H131        -3.9090     1.9390     1.1250 ha         1 F8D       0.148000
     20 H012         1.7260    -2.7420     2.0780 hc         1 F8D       0.062367
     21 H013         1.6790    -4.0910     0.9350 hc         1 F8D       0.062367
     22 H011         3.0160    -2.9370     0.9010 hc         1 F8D       0.062367
     23 H051         1.6570     0.1720     1.9050 h1         1 F8D       0.063200
     24 H052         3.0600    -0.7330     1.3480 h1         1 F8D       0.063200
     25 H061         2.8990     1.9170     0.8110 hc         1 F8D       0.095700
     26 H072         3.5530    -0.0770    -1.4120 h1         1 F8D       0.026200
     27 H071         3.9930     1.6290    -1.3750 h1         1 F8D       0.026200
     28 H081         5.6400     0.1630    -0.5270 ho         1 F8D       0.411000
     29 H091         1.6160     1.8400    -1.6010 h1         1 F8D       0.081700
     30 H121        -1.8060     3.2410     1.1180 ha         1 F8D       0.152000
     31 H161        -1.9330    -1.3710    -0.7690 ha         1 F8D       0.171000
     32 H181         0.6950    -0.3650    -1.8290 h1         1 F8D       0.098700
@<TRIPOS>BOND
     1     1    14 ar  
     2     1    15 ar  
     3     1    19 1   
     4     2    13 ar  
     5     2    17 ar  
     6     2    18 1   
     7     3     4 1   
     8     3    20 1   
     9     3    21 1   
    10     3    22 1   
    11     4     5 2   
    12     4     6 1   
    13     6     7 1   
    14     6    18 1   
    15     7     8 1   
    16     7    23 1   
    17     7    24 1   
    18     8     9 1   
    19     8    11 1   
    20     8    25 1   
    21     9    10 1   
    22     9    26 1   
    23     9    27 1   
    24    10    28 1   
    25    11    12 1   
    26    11    18 1   
    27    11    29 1   
    28    12    13 1   
    29    13    14 ar  
    30    14    30 1   
    31    15    16 1   
    32    15    17 ar  
    33    17    31 1   
    34    18    32 1   
@<TRIPOS>SUBSTRUCTURE
     1 F8D         1 TEMP              0 ****  ****    0 ROOT
