@<TRIPOS>MOLECULE
F8E
   32    34     1     0     0
SMALL
bcc


@<TRIPOS>ATOM
      1 BR           4.2620    -1.1250     0.3960 br         1 F8E      -0.067100
      2 C1           2.2640     3.7870     0.3470 c3         1 F8E       0.128700
      3 O2           1.7470     2.4670     0.5310 os         1 F8E      -0.408900
      4 C3           2.3860     1.4740    -0.0640 c          1 F8E       0.651700
      5 O4           3.3910     1.6120    -0.7110 o          1 F8E      -0.511000
      6 C5           1.6910     0.1710     0.1460 ca         1 F8E      -0.079600
      7 C6           0.2960     0.1690     0.1370 ca         1 F8E      -0.110000
      8 C7          -0.4200    -1.0210     0.2540 ca         1 F8E       0.175600
      9 C8           0.2940    -2.2130     0.4030 ca         1 F8E      -0.173000
     10 C9           1.6730    -2.2160     0.4320 ca         1 F8E      -0.086000
     11 C10          2.3820    -1.0290     0.2930 ca         1 F8E      -0.008900
     12 N12         -1.8040    -1.1190     0.2400 nu         1 F8E      -0.734300
     13 C13         -2.7670    -0.1720     0.0750 ca         1 F8E       0.760200
     14 C14         -4.1200    -0.5570     0.0780 ca         1 F8E      -0.381400
     15 C15         -4.8730    -1.7610     0.2180 cc         1 F8E      -0.162200
     16 C16         -6.1850    -1.3980     0.1140 cd         1 F8E      -0.118100
     17 N17         -6.2770    -0.0450    -0.0830 na         1 F8E      -0.261100
     18 C19         -5.0350     0.4890    -0.1070 ca         1 F8E       0.471800
     19 N20         -4.7240     1.7760    -0.2760 nb         1 F8E      -0.740000
     20 C21         -3.4280     1.9960    -0.2530 ca         1 F8E       0.702900
     21 N22         -2.4470     1.1040    -0.0900 nb         1 F8E      -0.806000
     22 HN17        -7.1350     0.4710    -0.1970 hn         1 F8E       0.314700
     23 H1           1.5860     4.4470     0.8780 h1         1 F8E       0.049700
     24 H1A          3.2650     3.8810     0.7670 h1         1 F8E       0.049700
     25 H1B          2.2870     4.0620    -0.7070 h1         1 F8E       0.049700
     26 H6          -0.2410     1.0950     0.0190 ha         1 F8E       0.189000
     27 H8          -0.2330    -3.1540     0.5040 ha         1 F8E       0.133000
     28 H9           2.1920    -3.1550     0.5670 ha         1 F8E       0.150000
     29 HN12        -2.1520    -2.0580     0.3570 hn         1 F8E       0.446800
     30 H15         -4.5100    -2.7630     0.3770 ha         1 F8E       0.154000
     31 H16         -7.0730    -2.0050     0.1650 h4         1 F8E       0.170000
     32 H21         -3.1060     3.0230    -0.3820 h5         1 F8E       0.050100
@<TRIPOS>BOND
     1     1    11 1   
     2     2     3 1   
     3     2    23 1   
     4     2    24 1   
     5     2    25 1   
     6     3     4 1   
     7     4     5 2   
     8     4     6 1   
     9     6     7 ar  
    10     6    11 ar  
    11     7     8 ar  
    12     7    26 1   
    13     8     9 ar  
    14     8    12 1   
    15     9    10 ar  
    16     9    27 1   
    17    10    11 ar  
    18    10    28 1   
    19    12    13 1   
    20    12    29 1   
    21    13    14 ar  
    22    13    21 ar  
    23    14    15 1   
    24    14    18 ar  
    25    15    16 2   
    26    15    30 1   
    27    16    17 1   
    28    16    31 1   
    29    17    18 1   
    30    17    22 1   
    31    18    19 ar  
    32    19    20 ar  
    33    20    21 ar  
    34    20    32 1   
@<TRIPOS>SUBSTRUCTURE
     1 F8E         1 TEMP              0 ****  ****    0 ROOT
