@<TRIPOS>MOLECULE
F8E
   32    34     1     0     0
SMALL
No Charge or Current Charge


@<TRIPOS>ATOM
      1 Br           4.2900    -1.1410     0.8060 br         1 F8E      -0.067100
      2 C1           2.3490     3.8180    -0.2350 c3         1 F8E       0.151900
      3 O2           1.7670     2.5450     0.1000 os         1 F8E      -0.432100
      4 C3           2.4780     1.4070    -0.1940 c          1 F8E       0.602700
      5 O4           3.5440     1.4200    -0.7970 o          1 F8E      -0.462000
      6 C5           1.7260     0.1410     0.1520 ca         1 F8E      -0.079600
      7 C6           0.3140     0.1300     0.0540 ca         1 F8E      -0.092000
      8 C7          -0.4330    -1.0240     0.3560 ca         1 F8E       0.314000
      9 C8           0.2410    -2.1920     0.7410 ca         1 F8E      -0.155000
     10 C9           1.6400    -2.2010     0.8540 ca         1 F8E      -0.068000
     11 C10          2.3850    -1.0450     0.5670 ca         1 F8E      -0.008900
     12 N12         -1.8280    -1.0680     0.2520 nu         1 F8E      -0.927900
     13 C13         -2.8420    -0.1200     0.3230 ca         1 F8E       0.431900
     14 C14         -4.1670    -0.4600     0.0170 ca         1 F8E      -0.250800
     15 C15         -4.7580    -1.6900    -0.4300 cc         1 F8E      -0.212200
     16 C16         -6.1140    -1.4450    -0.5770 cd         1 F8E      -0.168100
     17 N17         -6.3700    -0.0940    -0.2300 na         1 F8E      -0.311400
     18 C19         -5.1590     0.4810     0.1280 ca         1 F8E       0.143500
     19 N20         -4.8850     1.7350     0.5330 nb         1 F8E      -0.214000
     20 C21         -3.5870     1.9940     0.8200 ca         1 F8E       0.176900
     21 N22         -2.5500     1.1260     0.7410 nb         1 F8E      -0.280000
     22 HN17        -7.2700     0.3770    -0.2400 hn         1 F8E       0.365000
     23 H1           1.6790     4.6340     0.0620 h1         1 F8E       0.049700
     24 H1A          3.3070     3.9590     0.2830 h1         1 F8E       0.049700
     25 H1B          2.5230     3.8980    -1.3160 h1         1 F8E       0.049700
     26 H6          -0.2020     1.0200    -0.2890 ha         1 F8E       0.171000
     27 H8          -0.3180    -3.0950     0.9690 ha         1 F8E       0.115000
     28 H9           2.1500    -3.1080     1.1720 ha         1 F8E       0.132000
     29 HN12        -2.2010    -2.0130     0.1850 hn         1 F8E       0.502000
     30 H15         -4.2640    -2.6390    -0.6320 ha         1 F8E       0.204000
     31 H16         -6.9050    -2.1200    -0.9000 h4         1 F8E       0.220000
     32 H21         -3.3530     3.0040     1.1530 h5         1 F8E       0.050100
@<TRIPOS>BOND
     1     1    11 1   
     2     2     3 1   
     3     2    23 1   
     4     2    24 1   
     5     2    25 1   
     6     3     4 1   
     7     4     5 2   
     8     4     6 1   
     9     6     7 ar  
    10     6    11 ar  
    11     7     8 ar  
    12     7    26 1   
    13     8     9 ar  
    14     8    12 1   
    15     9    10 ar  
    16     9    27 1   
    17    10    11 ar  
    18    10    28 1   
    19    12    13 1   
    20    12    29 1   
    21    13    14 ar  
    22    13    21 ar  
    23    14    15 1   
    24    14    18 ar  
    25    15    16 2   
    26    15    30 1   
    27    16    17 1   
    28    16    31 1   
    29    17    18 1   
    30    17    22 1   
    31    18    19 ar  
    32    19    20 ar  
    33    20    21 ar  
    34    20    32 1   
@<TRIPOS>SUBSTRUCTURE
     1 F8E         1 TEMP              0 ****  ****    0 ROOT
