@<TRIPOS>MOLECULE
F8F
   23    23     1     0     0
SMALL
abcg2


@<TRIPOS>ATOM
      1 N          -60.7090    40.2210    16.8420 n8         1 F8F      -1.003200
      2 C12        -60.2370    40.5110    15.4980 c6         1 F8F       0.091500
      3 C13        -58.8190    41.1010    15.5430 c6         1 F8F       0.121300
      4 C14        -57.9950    40.7080    14.3060 c6         1 F8F       0.151300
      5 C15        -58.9040    40.4750    13.1120 c6         1 F8F       0.048300
      6 C16        -60.2570    39.2240    14.6800 c6         1 F8F       0.410300
      7 C87        -58.0920    40.1910    11.8220 c          1 F8F       0.740000
      8 O1         -59.8200    39.4250    13.3620 os         1 F8F      -0.454000
      9 O24        -57.2800    41.0910    11.5270 o          1 F8F      -0.712500
     10 O25        -58.3240    39.1440    11.1990 o          1 F8F      -0.712500
     11 O26        -57.2650    39.5200    14.5200 oh         1 F8F      -0.685000
     12 O27        -58.8370    42.5130    15.5880 oh         1 F8F      -0.654000
     13 H1         -60.6700    41.0560    17.4140 hn         1 F8F       0.387500
     14 H2         -61.6870    39.9610    16.8090 hn         1 F8F       0.387500
     15 H4         -60.8700    41.2390    14.9630 h1         1 F8F       0.045700
     16 H5         -58.3170    40.6920    16.4330 h1         1 F8F       0.029700
     17 H6         -57.3300    41.5460    14.0680 h1         1 F8F       0.079700
     18 H7         -59.4500    41.4170    12.9420 h1         1 F8F       0.031700
     19 H8         -59.6140    38.4790    15.1730 h2         1 F8F       0.036700
     20 H11        -56.6420    39.6710    15.2390 ho         1 F8F       0.472000
     21 H12        -59.3610    42.7990    16.3430 ho         1 F8F       0.422000
     22 O2         -61.5710    38.7660    14.6390 oh         1 F8F      -0.685000
     23 H3         -61.5730    37.8240    14.4400 ho         1 F8F       0.451000
@<TRIPOS>BOND
     1     1     2 1   
     2     1    13 1   
     3     1    14 1   
     4     2     3 1   
     5     2     6 1   
     6     2    15 1   
     7     3     4 1   
     8     3    12 1   
     9     3    16 1   
    10     4     5 1   
    11     4    11 1   
    12     4    17 1   
    13     5     7 1   
    14     5     8 1   
    15     5    18 1   
    16     6     8 1   
    17     6    19 1   
    18     6    22 1   
    19     7     9 1   
    20     7    10 1   
    21    11    20 1   
    22    12    21 1   
    23    22    23 1   
@<TRIPOS>SUBSTRUCTURE
     1 F8F         1 TEMP              0 ****  ****    0 ROOT
