@<TRIPOS>MOLECULE
F8F
   23    23     1     0     0
SMALL
No Charge or Current Charge


@<TRIPOS>ATOM
      1 N          -60.8270    40.5220    16.9230 n8         1 F8F      -1.003200
      2 C12        -60.1880    40.5350    15.5610 c6         1 F8F       0.091500
      3 C13        -58.7070    41.0650    15.6020 c6         1 F8F       0.121300
      4 C14        -57.8860    40.6140    14.3350 c6         1 F8F       0.151300
      5 C15        -58.8700    40.3920    13.1450 c6         1 F8F       0.048300
      6 C16        -60.2290    39.1550    14.8000 c6         1 F8F       0.410300
      7 C87        -58.0820    40.2380    11.7960 c          1 F8F       0.740000
      8 O1         -59.8210    39.2980    13.4230 os         1 F8F      -0.454000
      9 O24        -58.0720    41.2370    11.0860 o          1 F8F      -0.712500
     10 O25        -58.0770    39.1310    11.2680 o          1 F8F      -0.712500
     11 O26        -57.1510    39.4020    14.6160 oh         1 F8F      -0.685000
     12 O27        -58.7290    42.4980    15.7150 oh         1 F8F      -0.654000
     13 H1         -61.3360    41.4030    17.0610 hn         1 F8F       0.387500
     14 H2         -61.5810    39.8230    16.8950 hn         1 F8F       0.387500
     15 H4         -60.7920    41.2290    14.9550 h1         1 F8F       0.045700
     16 H5         -58.2120    40.6430    16.4900 h1         1 F8F       0.029700
     17 H6         -57.1870    41.4220    14.0640 h1         1 F8F       0.079700
     18 H7         -59.4600    41.3140    13.0360 h1         1 F8F       0.031700
     19 H8         -59.5700    38.4330    15.3060 h2         1 F8F       0.036700
     20 H11        -56.4580    39.6310    15.2750 ho         1 F8F       0.472000
     21 H12        -59.2420    42.6940    16.5300 ho         1 F8F       0.422000
     22 O2         -61.5520    38.6440    14.7380 oh         1 F8F      -0.685000
     23 H3         -61.5960    38.2500    13.8420 ho         1 F8F       0.451000
@<TRIPOS>BOND
     1     1     2 1   
     2     1    13 1   
     3     1    14 1   
     4     2     3 1   
     5     2     6 1   
     6     2    15 1   
     7     3     4 1   
     8     3    12 1   
     9     3    16 1   
    10     4     5 1   
    11     4    11 1   
    12     4    17 1   
    13     5     7 1   
    14     5     8 1   
    15     5    18 1   
    16     6     8 1   
    17     6    19 1   
    18     6    22 1   
    19     7     9 1   
    20     7    10 1   
    21    11    20 1   
    22    12    21 1   
    23    22    23 1   
@<TRIPOS>SUBSTRUCTURE
     1 F8F         1 TEMP              0 ****  ****    0 ROOT
