@<TRIPOS>MOLECULE
F8H
   61    64     1     0     0
SMALL
No Charge or Current Charge


@<TRIPOS>ATOM
      1 C1          10.4770    -1.6410    -0.0750 c3         1 F8H      -0.080000
      2 C2          11.0530    -1.3920    -1.4880 c3         1 F8H      -0.086600
      3 C3           9.3140    -0.7300     0.2450 cc         1 F8H       0.219300
      4 N6          -2.4870     2.0770    -1.6280 nb         1 F8H      -0.291000
      5 C7           2.5820     1.1280    -0.1940 ca         1 F8H      -0.040000
      6 C8           2.0420    -0.1670    -0.0310 ca         1 F8H      -0.126500
      7 C9           0.6480    -0.3610    -0.0380 ca         1 F8H      -0.098000
      8 C10         -0.2320     0.7200    -0.2150 ca         1 F8H       0.275000
      9 C11          0.3070     2.0140    -0.3560 ca         1 F8H      -0.098000
     10 C12          1.7000     2.2130    -0.3480 ca         1 F8H      -0.126500
     11 C13         -2.7320     1.0990    -0.7420 ca         1 F8H       0.430900
     12 C14         -4.0570     0.7030    -0.4230 ca         1 F8H      -0.254000
     13 C15         -5.1080     1.4090    -1.0620 ca         1 F8H       0.108000
     14 C16         -6.4420     1.0700    -0.7830 ca         1 F8H      -0.169000
     15 C19         -4.3850    -0.3370     0.4830 ca         1 F8H       0.246000
     16 C20         -8.5210    -1.2690     1.2390 c3         1 F8H       0.163600
     17 C21        -10.0650    -1.3040     1.2520 c3         1 F8H       0.156600
     18 C22        -11.9640    -1.8980    -0.1300 c3         1 F8H       0.144900
     19 F           -3.4340    -1.0580     1.1200 f          1 F8H      -0.184000
     20 C18         -5.7210    -0.6610     0.7480 ca         1 F8H      -0.255000
     21 C17         -6.7570     0.0450     0.1150 ca         1 F8H       0.203100
     22 O1          -8.0900    -0.2300     0.3380 os         1 F8H      -0.326100
     23 O2         -10.5330    -1.8200    -0.0110 os         1 F8H      -0.442000
     24 N5          -4.8450     2.3990    -1.9380 nb         1 F8H      -0.217000
     25 C23         -3.5530     2.6820    -2.1790 ca         1 F8H       0.185900
     26 N4          -1.6120     0.4730    -0.1990 nu         1 F8H      -0.933900
     27 N3           3.9780     1.4070    -0.1940 ns         1 F8H      -0.146000
     28 C6           5.0990     0.5850    -0.1540 c          1 F8H       0.590100
     29 O            5.0500    -0.6410    -0.1320 o          1 F8H      -0.542100
     30 N            7.5840     0.5450     0.2220 na         1 F8H       0.129800
     31 C4           8.4010    -0.1890    -0.6070 cd         1 F8H      -0.203000
     32 N1           8.0090     0.4490     1.5210 nd         1 F8H      -0.189800
     33 N2           9.0610    -0.3300     1.5280 nc         1 F8H      -0.355000
     34 C           10.0990    -3.1260     0.1240 c3         1 F8H      -0.086600
     35 H1          11.2820    -1.4170     0.6360 hc         1 F8H       0.067700
     36 H2          10.3200    -1.6440    -2.2640 hc         1 F8H       0.036367
     37 H3          11.3360    -0.3390    -1.6100 hc         1 F8H       0.036367
     38 H4          11.9480    -2.0040    -1.6550 hc         1 F8H       0.036367
     39 H5           2.6780    -1.0350     0.1090 ha         1 F8H       0.130000
     40 H6           0.2520    -1.3650     0.0880 ha         1 F8H       0.129000
     41 H7          -0.3450     2.8750    -0.4520 ha         1 F8H       0.129000
     42 H8           2.0920     3.2220    -0.4600 ha         1 F8H       0.130000
     43 H9          -7.2480     1.6110    -1.2710 ha         1 F8H       0.155000
     44 H10         -8.1640    -1.0640     2.2560 h1         1 F8H       0.047700
     45 H11         -8.1360    -2.2490     0.9260 h1         1 F8H       0.047700
     46 H12        -10.3980    -1.9500     2.0740 h1         1 F8H       0.035700
     47 H13        -10.4530    -0.2930     1.4330 h1         1 F8H       0.035700
     48 H14        -12.3850    -2.5580     0.6400 h1         1 F8H       0.031367
     49 H15        -12.4190    -0.9040    -0.0240 h1         1 F8H       0.031367
     50 H16        -12.2440    -2.2980    -1.1130 h1         1 F8H       0.031367
     51 H17         -5.9280    -1.4640     1.4480 ha         1 F8H       0.138000
     52 H18         -3.3500     3.4790    -2.8920 h5         1 F8H       0.046100
     53 H19         -1.8650    -0.3880     0.2850 hn         1 F8H       0.515000
     54 H20          4.1920     2.3960    -0.2280 hn         1 F8H       0.150000
     55 H21          6.5740     1.7700    -1.1590 h1         1 F8H       0.087200
     56 H22          6.3300     2.1960     0.5480 h1         1 F8H       0.087200
     57 H23          8.2730    -0.2690    -1.6780 h4         1 F8H       0.165000
     58 H24         10.9630    -3.7760    -0.0610 hc         1 F8H       0.036367
     59 H25          9.7550    -3.3030     1.1500 hc         1 F8H       0.036367
     60 H26          9.2950    -3.4170    -0.5630 hc         1 F8H       0.036367
     61 C5           6.4200     1.3590    -0.1550 c3         1 F8H      -0.012400
@<TRIPOS>BOND
     1     1     2 1   
     2     1     3 1   
     3     1    34 1   
     4     1    35 1   
     5     2    36 1   
     6     2    37 1   
     7     2    38 1   
     8     3    31 2   
     9     3    33 1   
    10     4    11 ar  
    11     4    25 ar  
    12     5     6 ar  
    13     5    10 ar  
    14     5    27 1   
    15     6     7 ar  
    16     6    39 1   
    17     7     8 ar  
    18     7    40 1   
    19     8     9 ar  
    20     8    26 1   
    21     9    10 ar  
    22     9    41 1   
    23    10    42 1   
    24    11    12 ar  
    25    11    26 1   
    26    12    13 ar  
    27    12    15 ar  
    28    13    14 ar  
    29    13    24 ar  
    30    14    21 ar  
    31    14    43 1   
    32    15    19 1   
    33    15    20 ar  
    34    16    17 1   
    35    16    22 1   
    36    16    44 1   
    37    16    45 1   
    38    17    23 1   
    39    17    46 1   
    40    17    47 1   
    41    18    23 1   
    42    18    48 1   
    43    18    49 1   
    44    18    50 1   
    45    20    21 ar  
    46    20    51 1   
    47    21    22 1   
    48    24    25 ar  
    49    25    52 1   
    50    26    53 1   
    51    27    28 1   
    52    27    54 1   
    53    28    29 2   
    54    28    61 1   
    55    30    31 1   
    56    30    32 1   
    57    30    61 1   
    58    31    57 1   
    59    32    33 2   
    60    34    58 1   
    61    34    59 1   
    62    34    60 1   
    63    55    61 1   
    64    56    61 1   
@<TRIPOS>SUBSTRUCTURE
     1 F8H         1 TEMP              0 ****  ****    0 ROOT
