@<TRIPOS>MOLECULE
F8H
   61    64     1     0     0
SMALL
bcc


@<TRIPOS>ATOM
      1 C1          10.0250    -1.7180    -0.6620 c3         1 F8H      -0.080000
      2 C2          10.3620    -1.2780    -2.0820 c3         1 F8H      -0.086600
      3 C3           9.0510    -0.7870    -0.0140 cc         1 F8H       0.284600
      4 N6          -2.0820     1.4500    -1.6260 nb         1 F8H      -0.817000
      5 C7           2.6540     1.2560     0.3360 ca         1 F8H       0.052600
      6 C8           2.1350     0.0600     0.8280 ca         1 F8H      -0.144500
      7 C9           0.7660    -0.1560     0.8030 ca         1 F8H      -0.116000
      8 C10         -0.1150     0.7980     0.3050 ca         1 F8H       0.136600
      9 C11          0.4040     2.0000    -0.1720 ca         1 F8H      -0.116000
     10 C12          1.7690     2.2140    -0.1600 ca         1 F8H      -0.144500
     11 C13         -2.4420     0.8320    -0.5190 ca         1 F8H       0.759200
     12 C14         -3.8230     0.4960    -0.2940 ca         1 F8H      -0.384600
     13 C15         -4.7310     0.8540    -1.3250 ca         1 F8H       0.501600
     14 C16         -6.0950     0.5680    -1.2040 ca         1 F8H      -0.252300
     15 C19         -4.3790    -0.1320     0.8300 ca         1 F8H       0.210900
     16 C20         -8.4710    -0.9150     1.1090 c3         1 F8H       0.140400
     17 C21         -9.9530    -1.0440     0.8810 c3         1 F8H       0.133400
     18 C22        -11.5610    -2.0910    -0.4480 c3         1 F8H       0.121700
     19 F           -3.5750    -0.4840     1.8470 f          1 F8H      -0.148900
     20 C18         -5.7080    -0.4130     0.9680 ca         1 F8H      -0.273000
     21 C17         -6.5850    -0.0590    -0.0750 ca         1 F8H       0.203100
     22 O1          -7.8980    -0.2980    -0.0360 os         1 F8H      -0.302900
     23 O2         -10.1910    -1.9370    -0.1730 os         1 F8H      -0.395600
     24 N5          -4.3050     1.4860    -2.4520 nb         1 F8H      -0.743000
     25 C23         -3.0310     1.7400    -2.5220 ca         1 F8H       0.711900
     26 N4          -1.4900     0.5220     0.3830 nu         1 F8H      -0.740300
     27 N3           4.0160     1.5820     0.3300 ns         1 F8H      -0.472100
     28 C6           5.0800     0.7720     0.5210 c          1 F8H       0.657100
     29 O            5.0320    -0.4220     0.7230 o          1 F8H      -0.542100
     30 N            7.5150     0.6260     0.4810 na         1 F8H       0.108400
     31 C4           8.1170     0.0470    -0.5740 cd         1 F8H      -0.235600
     32 N1           8.0180     0.1800     1.6160 nd         1 F8H      -0.189800
     33 N2           8.9450    -0.6660     1.3300 nc         1 F8H      -0.355000
     34 C            9.4970    -3.1540    -0.6430 c3         1 F8H      -0.086600
     35 H1          10.9420    -1.6920    -0.0650 hc         1 F8H       0.067700
     36 H2           9.4830    -1.3190    -2.7280 hc         1 F8H       0.036367
     37 H3          10.7520    -0.2600    -2.1070 hc         1 F8H       0.036367
     38 H4          11.1140    -1.9380    -2.5150 hc         1 F8H       0.036367
     39 H5           2.7730    -0.7090     1.2300 ha         1 F8H       0.148000
     40 H6           0.3800    -1.0930     1.1850 ha         1 F8H       0.147000
     41 H7          -0.2450     2.7740    -0.5500 ha         1 F8H       0.147000
     42 H8           2.1520     3.1550    -0.5370 ha         1 F8H       0.148000
     43 H9          -6.7610     0.8510    -2.0080 ha         1 F8H       0.173000
     44 H10         -8.3050    -0.3020     2.0010 h1         1 F8H       0.047700
     45 H11         -8.0250    -1.9000     1.2830 h1         1 F8H       0.047700
     46 H12        -10.4040    -1.3990     1.8190 h1         1 F8H       0.035700
     47 H13        -10.3880    -0.0560     0.6740 h1         1 F8H       0.035700
     48 H14        -12.1130    -2.4860     0.4130 h1         1 F8H       0.031367
     49 H15        -12.0300    -1.1440    -0.7410 h1         1 F8H       0.031367
     50 H16        -11.6610    -2.7940    -1.2740 h1         1 F8H       0.031367
     51 H17         -6.0460    -0.8950     1.8740 ha         1 F8H       0.156000
     52 H18         -2.6830     2.2470    -3.4160 h5         1 F8H       0.046100
     53 H19         -1.7560    -0.0720     1.1500 hn         1 F8H       0.459800
     54 H20          4.2180     2.5480     0.1150 hn         1 F8H       0.316500
     55 H21          6.4640     2.1670    -0.4040 h1         1 F8H       0.087200
     56 H22          6.4810     2.1800     1.3540 h1         1 F8H       0.087200
     57 H23          7.8510     0.2760    -1.5920 h4         1 F8H       0.183000
     58 H24         10.2410    -3.8410    -1.0510 hc         1 F8H       0.036367
     59 H25          9.2580    -3.4790     0.3700 hc         1 F8H       0.036367
     60 H26          8.5920    -3.2420    -1.2480 hc         1 F8H       0.036367
     61 C5           6.4040     1.5310     0.4800 c3         1 F8H      -0.041700
@<TRIPOS>BOND
     1     1     2 1   
     2     1     3 1   
     3     1    34 1   
     4     1    35 1   
     5     2    36 1   
     6     2    37 1   
     7     2    38 1   
     8     3    31 2   
     9     3    33 1   
    10     4    11 ar  
    11     4    25 ar  
    12     5     6 ar  
    13     5    10 ar  
    14     5    27 1   
    15     6     7 ar  
    16     6    39 1   
    17     7     8 ar  
    18     7    40 1   
    19     8     9 ar  
    20     8    26 1   
    21     9    10 ar  
    22     9    41 1   
    23    10    42 1   
    24    11    12 ar  
    25    11    26 1   
    26    12    13 ar  
    27    12    15 ar  
    28    13    14 ar  
    29    13    24 ar  
    30    14    21 ar  
    31    14    43 1   
    32    15    19 1   
    33    15    20 ar  
    34    16    17 1   
    35    16    22 1   
    36    16    44 1   
    37    16    45 1   
    38    17    23 1   
    39    17    46 1   
    40    17    47 1   
    41    18    23 1   
    42    18    48 1   
    43    18    49 1   
    44    18    50 1   
    45    20    21 ar  
    46    20    51 1   
    47    21    22 1   
    48    24    25 ar  
    49    25    52 1   
    50    26    53 1   
    51    27    28 1   
    52    27    54 1   
    53    28    29 2   
    54    28    61 1   
    55    30    31 1   
    56    30    32 1   
    57    30    61 1   
    58    31    57 1   
    59    32    33 2   
    60    34    58 1   
    61    34    59 1   
    62    34    60 1   
    63    55    61 1   
    64    56    61 1   
@<TRIPOS>SUBSTRUCTURE
     1 F8H         1 TEMP              0 ****  ****    0 ROOT
