@<TRIPOS>MOLECULE
F8I
   54    57     1     0     0
SMALL
abcg2


@<TRIPOS>ATOM
      1 C1         -16.9120    -0.6610    31.0430 c3         1 F8I       0.143400
      2 C2         -17.4690     0.1880    32.1870 c3         1 F8I      -0.101767
      3 C3         -18.0180    -1.5810    30.5230 c3         1 F8I      -0.101767
      4 C4         -15.7410    -1.5190    31.5250 c3         1 F8I      -0.101767
      5 C5         -15.3340     1.8590    28.6100 ca         1 F8I      -0.188600
      6 C8         -14.6620     3.4030    26.3220 ca         1 F8I       0.068200
      7 C9         -15.6040     2.3780    26.2570 ca         1 F8I      -0.190000
      8 C6         -14.3950     2.8960    28.6570 ca         1 F8I      -0.037000
      9 C7         -14.0530     3.6520    27.5560 ca         1 F8I      -0.155000
     10 C10        -15.9380     1.6150    27.3640 ca         1 F8I       0.163100
     11 C11        -16.9810    -0.1360    26.0630 c3         1 F8I       0.162600
     12 C12        -18.2160     0.1740    25.2460 c3         1 F8I       0.132600
     13 C13        -18.6010     1.5740    23.3530 c3         1 F8I       0.148600
     14 C14        -17.5160     1.2080    22.3190 c3         1 F8I       0.204800
     15 C15        -16.0920     3.2110    22.0860 cc         1 F8I       0.652900
     16 C16        -14.8960     4.0050    23.8530 cd         1 F8I       0.447500
     17 C17        -14.3670     4.1850    25.1350 cc         1 F8I      -0.262800
     18 C18        -13.5200     5.3030    24.9850 cc         1 F8I       0.420500
     19 C19        -14.6690     5.1130    21.7690 cd         1 F8I       0.001000
     20 C20        -15.5470     4.2360    21.2380 cc         1 F8I      -0.271000
     21 O1         -16.8720     0.6370    27.2600 os         1 F8I      -0.379100
     22 O2         -18.1880     1.4690    24.6960 os         1 F8I      -0.431000
     23 N          -16.5230     0.1760    29.9040 ns         1 F8I      -0.503900
     24 C          -15.5740     1.1230    29.8980 c          1 F8I       0.625700
     25 O          -14.9080     1.4090    30.8900 o          1 F8I      -0.634100
     26 N1         -16.9610     2.3240    21.5820 nu         1 F8I      -0.932100
     27 N2         -15.7580     3.1160    23.3550 nd         1 F8I      -0.748000
     28 N3         -13.5020     5.7920    23.7620 nd         1 F8I      -0.581100
     29 N4         -14.3440     4.9950    23.0800 na         1 F8I       0.082900
     30 H1         -17.8340    -0.4600    32.9860 hc         1 F8I       0.041700
     31 H2         -16.7150     0.8480    32.6090 hc         1 F8I       0.041700
     32 H3         -18.3070     0.7960    31.8420 hc         1 F8I       0.041700
     33 H4         -18.3640    -2.2390    31.3190 hc         1 F8I       0.041700
     34 H5         -18.8750    -1.0070    30.1650 hc         1 F8I       0.041700
     35 H6         -17.6590    -2.2050    29.7030 hc         1 F8I       0.041700
     36 H7         -16.0760    -2.1950    32.3130 hc         1 F8I       0.041700
     37 H8         -15.3450    -2.1250    30.7080 hc         1 F8I       0.041700
     38 H9         -14.9300    -0.9140    31.9260 hc         1 F8I       0.041700
     39 H10        -16.1130     2.1970    25.3240 ha         1 F8I       0.163000
     40 H11        -13.9110     3.1010    29.6020 ha         1 F8I       0.138000
     41 H12        -13.3150     4.4370    27.6640 ha         1 F8I       0.113000
     42 H13        -17.0510    -1.1790    26.3830 h1         1 F8I       0.056200
     43 H14        -16.0770    -0.0390    25.4560 h1         1 F8I       0.056200
     44 H15        -19.1110     0.0470    25.8690 h1         1 F8I       0.037200
     45 H16        -18.2640    -0.5990    24.4690 h1         1 F8I       0.037200
     46 H17        -18.9160     2.6080    23.1990 h1         1 F8I       0.052700
     47 H18        -19.4830     0.9470    23.1800 h1         1 F8I       0.052700
     48 H19        -17.9440     0.5470    21.5670 h1         1 F8I       0.053700
     49 H20        -16.7140     0.6490    22.8100 h1         1 F8I       0.053700
     50 H21        -12.9170     5.7760    25.7460 h4         1 F8I       0.049800
     51 H22        -14.2000     5.9150    21.2170 h4         1 F8I       0.162000
     52 H23        -15.8200     4.3050    20.1950 ha         1 F8I       0.137000
     53 H24        -17.0090     0.0150    29.0350 hn         1 F8I       0.332500
     54 H25        -17.1950     2.4000    20.6070 hn         1 F8I       0.498000
@<TRIPOS>BOND
     1     1     2 1   
     2     1     3 1   
     3     1     4 1   
     4     1    23 1   
     5     2    30 1   
     6     2    31 1   
     7     2    32 1   
     8     3    33 1   
     9     3    34 1   
    10     3    35 1   
    11     4    36 1   
    12     4    37 1   
    13     4    38 1   
    14     5     8 ar  
    15     5    10 ar  
    16     5    24 1   
    17     6     7 ar  
    18     6     9 ar  
    19     6    17 1   
    20     7    10 ar  
    21     7    39 1   
    22     8     9 ar  
    23     8    40 1   
    24     9    41 1   
    25    10    21 1   
    26    11    12 1   
    27    11    21 1   
    28    11    42 1   
    29    11    43 1   
    30    12    22 1   
    31    12    44 1   
    32    12    45 1   
    33    13    14 1   
    34    13    22 1   
    35    13    46 1   
    36    13    47 1   
    37    14    26 1   
    38    14    48 1   
    39    14    49 1   
    40    15    20 1   
    41    15    26 1   
    42    15    27 2   
    43    16    17 2   
    44    16    27 1   
    45    16    29 1   
    46    17    18 1   
    47    18    28 2   
    48    18    50 1   
    49    19    20 2   
    50    19    29 1   
    51    19    51 1   
    52    20    52 1   
    53    23    24 1   
    54    23    53 1   
    55    24    25 2   
    56    26    54 1   
    57    28    29 1   
@<TRIPOS>SUBSTRUCTURE
     1 F8I         1 TEMP              0 ****  ****    0 ROOT
