@<TRIPOS>MOLECULE
F8I
   54    57     1     0     0
SMALL
No Charge or Current Charge


@<TRIPOS>ATOM
      1 C1         -17.0190    -0.6380    30.9520 c3         1 F8I       0.143400
      2 C2         -18.0250     0.2200    31.7610 c3         1 F8I      -0.101767
      3 C3         -17.7670    -1.8450    30.3380 c3         1 F8I      -0.101767
      4 C4         -15.8840    -1.1590    31.8690 c3         1 F8I      -0.101767
      5 C5         -15.2800     1.8830    28.5370 ca         1 F8I      -0.188600
      6 C8         -14.4180     3.1880    26.1400 ca         1 F8I       0.068200
      7 C9         -15.0680     1.9400    26.1020 ca         1 F8I      -0.190000
      8 C6         -14.5570     3.1000    28.5740 ca         1 F8I      -0.037000
      9 C7         -14.1360     3.7400    27.3980 ca         1 F8I      -0.155000
     10 C10        -15.5380     1.2950    27.2670 ca         1 F8I       0.163100
     11 C11        -16.5670    -0.5820    25.9330 c3         1 F8I       0.162600
     12 C12        -17.9040    -0.0540    25.3300 c3         1 F8I       0.132600
     13 C13        -18.6630     1.8410    23.9520 c3         1 F8I       0.148600
     14 C14        -18.0180     1.5460    22.5560 c3         1 F8I       0.204800
     15 C15        -16.2790     3.4100    22.2910 cc         1 F8I       0.652900
     16 C16        -14.7040     3.8790    23.7250 cd         1 F8I       0.447500
     17 C17        -14.0380     3.9260    24.9190 cc         1 F8I      -0.262800
     18 C18        -13.1280     5.0110    24.7580 cc         1 F8I       0.420500
     19 C19        -14.6400     5.1730    21.6940 cd         1 F8I       0.001000
     20 C20        -15.7570     4.3990    21.3830 cc         1 F8I      -0.271000
     21 O1         -16.2260     0.0890    27.1760 os         1 F8I      -0.379100
     22 O2         -17.8110     1.3540    25.0190 os         1 F8I      -0.431000
     23 N          -16.4670     0.1310    29.8300 ns         1 F8I      -0.503900
     24 C          -15.7230     1.2910    29.8680 c          1 F8I       0.625700
     25 O          -15.4290     1.8270    30.9280 o          1 F8I      -0.634100
     26 N1         -17.3950     2.7340    21.8970 nu         1 F8I      -0.932100
     27 N2         -15.8120     3.1060    23.4750 nd         1 F8I      -0.748000
     28 N3         -13.1280     5.6030    23.5620 nd         1 F8I      -0.581100
     29 N4         -14.1120     4.8590    22.9460 na         1 F8I       0.082900
     30 H1         -18.5150    -0.3840    32.5340 hc         1 F8I       0.041700
     31 H2         -17.5290     1.0580    32.2640 hc         1 F8I       0.041700
     32 H3         -18.8040     0.6290    31.1060 hc         1 F8I       0.041700
     33 H4         -18.2110    -2.4710    31.1220 hc         1 F8I       0.041700
     34 H5         -18.5740    -1.5100    29.6750 hc         1 F8I       0.041700
     35 H6         -17.0840    -2.4720    29.7510 hc         1 F8I       0.041700
     36 H7         -16.2880    -1.8190    32.6470 hc         1 F8I       0.041700
     37 H8         -15.1470    -1.7290    31.2910 hc         1 F8I       0.041700
     38 H9         -15.3610    -0.3390    32.3730 hc         1 F8I       0.041700
     39 H10        -15.2130     1.4680    25.1440 ha         1 F8I       0.163000
     40 H11        -14.3320     3.5760    29.5260 ha         1 F8I       0.138000
     41 H12        -13.6180     4.6920    27.4760 ha         1 F8I       0.113000
     42 H13        -16.7180    -1.6480    26.1410 h1         1 F8I       0.056200
     43 H14        -15.7570    -0.5340    25.1960 h1         1 F8I       0.056200
     44 H15        -18.7220    -0.2340    26.0390 h1         1 F8I       0.037200
     45 H16        -18.1160    -0.6380    24.4250 h1         1 F8I       0.037200
     46 H17        -18.8200     2.9220    24.0520 h1         1 F8I       0.052700
     47 H18        -19.6510     1.3630    24.0040 h1         1 F8I       0.052700
     48 H19        -18.8080     1.1550    21.9000 h1         1 F8I       0.053700
     49 H20        -17.2730     0.7440    22.6590 h1         1 F8I       0.053700
     50 H21        -12.4610     5.4040    25.5140 h4         1 F8I       0.049800
     51 H22        -14.1840     5.9540    21.0970 h4         1 F8I       0.162000
     52 H23        -16.2620     4.5490    20.4360 ha         1 F8I       0.137000
     53 H24        -16.6420    -0.2190    28.8960 hn         1 F8I       0.332500
     54 H25        -17.7190     2.9860    20.9650 hn         1 F8I       0.498000
@<TRIPOS>BOND
     1     1     2 1   
     2     1     3 1   
     3     1     4 1   
     4     1    23 1   
     5     2    30 1   
     6     2    31 1   
     7     2    32 1   
     8     3    33 1   
     9     3    34 1   
    10     3    35 1   
    11     4    36 1   
    12     4    37 1   
    13     4    38 1   
    14     5     8 ar  
    15     5    10 ar  
    16     5    24 1   
    17     6     7 ar  
    18     6     9 ar  
    19     6    17 1   
    20     7    10 ar  
    21     7    39 1   
    22     8     9 ar  
    23     8    40 1   
    24     9    41 1   
    25    10    21 1   
    26    11    12 1   
    27    11    21 1   
    28    11    42 1   
    29    11    43 1   
    30    12    22 1   
    31    12    44 1   
    32    12    45 1   
    33    13    14 1   
    34    13    22 1   
    35    13    46 1   
    36    13    47 1   
    37    14    26 1   
    38    14    48 1   
    39    14    49 1   
    40    15    20 1   
    41    15    26 1   
    42    15    27 2   
    43    16    17 2   
    44    16    27 1   
    45    16    29 1   
    46    17    18 1   
    47    18    28 2   
    48    18    50 1   
    49    19    20 2   
    50    19    29 1   
    51    19    51 1   
    52    20    52 1   
    53    23    24 1   
    54    23    53 1   
    55    24    25 2   
    56    26    54 1   
    57    28    29 1   
@<TRIPOS>SUBSTRUCTURE
     1 F8I         1 TEMP              0 ****  ****    0 ROOT
