@<TRIPOS>MOLECULE
F8J
   78    82     1     0     0
SMALL
No Charge or Current Charge


@<TRIPOS>ATOM
      1 N           -2.9630     1.9630     0.1690 na         1 F8J      -0.074700
      2 CA          -2.1850     3.0060     0.8640 c3         1 F8J      -0.010400
      3 C           -1.4440     3.9480    -0.0950 c          1 F8J       0.582100
      4 O           -2.0240     4.6590    -0.9060 o          1 F8J      -0.576100
      5 CAA          1.1210     6.0890    -0.1980 c3         1 F8J      -0.110100
      6 CAB          2.1410     3.9050    -1.0610 c3         1 F8J      -0.110100
      7 CAF          8.3950     0.2910     2.6610 ca         1 F8J      -0.089000
      8 CAG          7.0150     0.5960     2.5700 ca         1 F8J      -0.138000
      9 CAH         -1.6810    -1.3910    -1.9180 ca         1 F8J      -0.157000
     10 CAI          8.9360    -0.7950     1.9380 ca         1 F8J      -0.128000
     11 CAJ          6.1620    -0.1810     1.7560 ca         1 F8J      -0.060000
     12 CAK         -3.0420    -1.0560    -1.7450 ca         1 F8J      -0.052000
     13 CAL          7.1570    -3.0900    -0.2880 cc         1 F8J      -0.149100
     14 CAM         -1.0020     0.5800    -0.6390 ca         1 F8J      -0.097000
     15 CAN         -4.3640     1.8740     0.0700 cc         1 F8J      -0.108100
     16 CAO          4.3420    -1.1730    -1.2600 c3         1 F8J       0.104000
     17 CAP          4.7110    -2.2820    -0.2530 c3         1 F8J      -0.014200
     18 CAQ         -6.6800    -2.3030     1.8450 c6         1 F8J       0.163800
     19 CAR         -8.8170    -1.4950     0.9660 c6         1 F8J       0.163800
     20 CAS         -5.9330    -1.6410     0.6420 c6         1 F8J       0.164300
     21 CAT         -8.0710    -0.8350    -0.2400 c6         1 F8J       0.164300
     22 CAV         -5.9680     0.1920    -1.0360 c3         1 F8J       0.244000
     23 CBC         -0.6570    -0.5870    -1.3600 ca         1 F8J       0.063600
     24 CBD          6.1620    -2.2220     0.1510 cd         1 F8J      -0.149400
     25 CBE         -4.6010     0.7190    -0.6690 cd         1 F8J      -0.146400
     26 CBF          8.0650    -1.5470     1.1390 ca         1 F8J      -0.045200
     27 CBG          6.7350    -1.2500     1.0530 ca         1 F8J      -0.093800
     28 CBH         -3.3390     0.1020    -1.0170 ca         1 F8J      -0.085800
     29 CBI         -2.3610     0.8930    -0.4820 ca         1 F8J      -0.035200
     30 NAW          2.9300    -1.2200    -1.6580 ns         1 F8J      -0.455900
     31 NAX          0.6880    -0.9680    -1.5950 ns         1 F8J      -0.372100
     32 NAY         -0.0680     3.9360     0.0180 ns         1 F8J      -0.497900
     33 NAZ          8.3390    -2.6460     0.3440 na         1 F8J      -0.221700
     34 NBK         -8.0850    -2.6810     1.5050 n3         1 F8J      -0.717600
     35 NBL         -6.6660    -0.4540     0.0980 n3         1 F8J      -0.721600
     36 SAE          2.0460     0.0850     0.5060 s          1 F8J      -0.660400
     37 H1          -2.8580     3.6150     1.4790 h1         1 F8J       0.068700
     38 H2          -1.4610     2.5260     1.5330 h1         1 F8J       0.068700
     39 H3           0.1860     6.6480    -0.0740 hc         1 F8J       0.042700
     40 H4           1.5950     5.9870     0.7860 hc         1 F8J       0.042700
     41 H5           1.7860     6.6780    -0.8420 hc         1 F8J       0.042700
     42 H6           2.6650     3.7130    -0.1170 hc         1 F8J       0.042700
     43 H7           1.9140     2.9400    -1.5320 hc         1 F8J       0.042700
     44 H8           2.8190     4.4550    -1.7250 hc         1 F8J       0.042700
     45 H9          -9.8020    -3.6350     2.3280 h1         1 F8J       0.029033
     46 H10         -8.2510    -4.2210     2.9660 h1         1 F8J       0.029033
     47 H11         -8.8830    -2.6390     3.4830 h1         1 F8J       0.029033
     48 H13          6.6080     1.4350     3.1310 ha         1 F8J       0.112000
     49 H14         -1.4240    -2.2830    -2.4830 ha         1 F8J       0.109000
     50 H15          9.9950    -1.0380     2.0010 ha         1 F8J       0.113000
     51 H16          5.1010     0.0420     1.6790 ha         1 F8J       0.115000
     52 H17         -3.8280    -1.6770    -2.1670 ha         1 F8J       0.117000
     53 H18          7.1220    -3.9400    -0.9640 h4         1 F8J       0.211000
     54 H19         -0.2410     1.2330    -0.2340 ha         1 F8J       0.135000
     55 H20         -5.0440     2.5940     0.5120 h4         1 F8J       0.218000
     56 H21          4.5630    -0.1900    -0.8240 h1         1 F8J       0.075200
     57 H22          4.9630    -1.2830    -2.1590 h1         1 F8J       0.075200
     58 H23          4.0770    -2.1920     0.6370 hc         1 F8J       0.045200
     59 H24          4.4840    -3.2580    -0.6990 hc         1 F8J       0.045200
     60 H25         -6.1140    -3.1900     2.1640 h1         1 F8J       0.035700
     61 H26         -6.6730    -1.5980     2.6900 h1         1 F8J       0.035700
     62 H27         -8.9430    -0.7380     1.7550 h1         1 F8J       0.035700
     63 H28         -9.8250    -1.7870     0.6370 h1         1 F8J       0.035700
     64 H29         -4.9270    -1.3530     0.9810 h1         1 F8J       0.038700
     65 H30         -5.8010    -2.3970    -0.1460 h1         1 F8J       0.038700
     66 H31         -8.0790    -1.5420    -1.0830 h1         1 F8J       0.038700
     67 H32         -8.6390     0.0510    -0.5590 h1         1 F8J       0.038700
     68 H33         -6.5650     1.0380    -1.4040 h1         1 F8J       0.037200
     69 H34         -5.8680    -0.5140    -1.8720 h1         1 F8J       0.037200
     70 H36          2.7200    -1.6850    -2.5340 hn         1 F8J       0.296500
     71 H37          0.7880    -1.5400    -2.4220 hn         1 F8J       0.304500
     72 H38          0.3310     3.3270     0.7220 hn         1 F8J       0.305500
     73 H39          9.2560    -3.0670     0.2350 hn         1 F8J       0.352000
     74 CAC         -8.7930    -3.3270     2.6310 c3         1 F8J       0.153100
     75 CBB          1.8740    -0.7040    -0.9600 cs         1 F8J       0.479400
     76 CBJ          0.8480     4.7070    -0.8210 c3         1 F8J       0.114700
     77 H12          9.0430     0.8970     3.2920 ha         1 F8J       0.111000
     78 H35          0.3730     4.8650    -1.8000 h1         1 F8J       0.087700
@<TRIPOS>BOND
     1     1     2 1   
     2     1    15 1   
     3     1    29 1   
     4     2     3 1   
     5     2    37 1   
     6     2    38 1   
     7     3     4 2   
     8     3    32 1   
     9     5    39 1   
    10     5    40 1   
    11     5    41 1   
    12     5    76 1   
    13     6    42 1   
    14     6    43 1   
    15     6    44 1   
    16     6    76 1   
    17     7     8 ar  
    18     7    10 ar  
    19     7    77 1   
    20     8    11 ar  
    21     8    48 1   
    22     9    12 ar  
    23     9    23 ar  
    24     9    49 1   
    25    10    26 ar  
    26    10    50 1   
    27    11    27 ar  
    28    11    51 1   
    29    12    28 ar  
    30    12    52 1   
    31    13    24 2   
    32    13    33 1   
    33    13    53 1   
    34    14    23 ar  
    35    14    29 ar  
    36    14    54 1   
    37    15    25 2   
    38    15    55 1   
    39    16    17 1   
    40    16    30 1   
    41    16    56 1   
    42    16    57 1   
    43    17    24 1   
    44    17    58 1   
    45    17    59 1   
    46    18    20 1   
    47    18    34 1   
    48    18    60 1   
    49    18    61 1   
    50    19    21 1   
    51    19    34 1   
    52    19    62 1   
    53    19    63 1   
    54    20    35 1   
    55    20    64 1   
    56    20    65 1   
    57    21    35 1   
    58    21    66 1   
    59    21    67 1   
    60    22    25 1   
    61    22    35 1   
    62    22    68 1   
    63    22    69 1   
    64    23    31 1   
    65    24    27 1   
    66    25    28 1   
    67    26    27 ar  
    68    26    33 1   
    69    28    29 ar  
    70    30    70 1   
    71    30    75 1   
    72    31    71 1   
    73    31    75 1   
    74    32    72 1   
    75    32    76 1   
    76    33    73 1   
    77    34    74 1   
    78    36    75 2   
    79    45    74 1   
    80    46    74 1   
    81    47    74 1   
    82    76    78 1   
@<TRIPOS>SUBSTRUCTURE
     1 F8J         1 TEMP              0 ****  ****    0 ROOT
