@<TRIPOS>MOLECULE
F8J
   78    82     1     0     0
SMALL
bcc


@<TRIPOS>ATOM
      1 N           -2.9010     1.5090     0.4350 na         1 F8J      -0.045400
      2 CA          -2.1880     2.5520     1.1130 c3         1 F8J      -0.039700
      3 C           -1.2440     3.2780     0.1570 c          1 F8J       0.649100
      4 O           -1.5900     3.5410    -0.9830 o          1 F8J      -0.576100
      5 CAA          0.7990     5.8130     0.0610 c3         1 F8J      -0.110100
      6 CAB          2.3460     3.8620     0.4790 c3         1 F8J      -0.110100
      7 CAF          9.0370     1.1770     1.1430 ca         1 F8J      -0.107000
      8 CAG          7.7260     1.1820     1.6490 ca         1 F8J      -0.156000
      9 CAH         -1.6730    -2.0330    -1.2030 ca         1 F8J      -0.175000
     10 CAI          9.4760     0.1800     0.2930 ca         1 F8J      -0.146000
     11 CAJ          6.8300     0.1870     1.3110 ca         1 F8J      -0.078000
     12 CAK         -2.9730    -1.5820    -1.3130 ca         1 F8J      -0.070000
     13 CAL          7.5390    -2.6190    -0.8690 cc         1 F8J      -0.099100
     14 CAM         -1.0200    -0.0880     0.0940 ca         1 F8J      -0.115000
     15 CAN         -4.2090     1.5440     0.0350 cc         1 F8J      -0.058100
     16 CAO          4.2190    -1.5420    -0.6610 c3         1 F8J       0.104000
     17 CAP          5.1880    -2.4190     0.1280 c3         1 F8J      -0.014200
     18 CAQ         -7.4430    -1.9500     1.4760 c6         1 F8J       0.163800
     19 CAR         -9.1550    -0.8290     0.2670 c6         1 F8J       0.163800
     20 CAS         -6.4380    -1.5730     0.4050 c6         1 F8J       0.164300
     21 CAT         -8.1510    -0.4610    -0.8090 c6         1 F8J       0.164300
     22 CAV         -5.8610     0.0830    -1.2520 c3         1 F8J       0.244000
     23 CBC         -0.6990    -1.2890    -0.5110 ca         1 F8J       0.063600
     24 CBD          6.6030    -2.0000    -0.0900 cd         1 F8J      -0.149400
     25 CBE         -4.5220     0.4230    -0.6800 cd         1 F8J      -0.146400
     26 CBF          8.5670    -0.8230    -0.0460 ca         1 F8J      -0.045200
     27 CBG          7.2440    -0.8370     0.4510 ca         1 F8J      -0.093800
     28 CBH         -3.3200    -0.3540    -0.7410 ca         1 F8J      -0.085800
     29 CBI         -2.3270     0.3640    -0.0430 ca         1 F8J      -0.035200
     30 NAW          2.8550    -1.9430    -0.3940 ns         1 F8J      -0.522900
     31 NAX          0.5970    -1.8310    -0.4070 ns         1 F8J      -0.439100
     32 NAY         -0.0540     3.5900     0.6790 ns         1 F8J      -0.564900
     33 NAZ          8.7130    -1.9190    -0.8440 na         1 F8J      -0.171400
     34 NBK         -8.7740    -2.0670     0.9170 n3         1 F8J      -0.717600
     35 NBL         -6.8220    -0.3360    -0.2440 n3         1 F8J      -0.721600
     36 SAE          1.8810     0.3580    -1.2650 s          1 F8J      -0.660400
     37 H1          -2.9100     3.2730     1.5010 h1         1 F8J       0.068700
     38 H2          -1.6590     2.1450     1.9780 h1         1 F8J       0.068700
     39 H3          -0.1780     6.1150    -0.3150 hc         1 F8J       0.042700
     40 H4           0.8850     6.1450     1.0980 hc         1 F8J       0.042700
     41 H5           1.5590     6.3320    -0.5230 hc         1 F8J       0.042700
     42 H6           2.4610     4.1070     1.5380 hc         1 F8J       0.042700
     43 H7           2.4800     2.7870     0.3540 hc         1 F8J       0.042700
     44 H8           3.1430     4.3690    -0.0650 hc         1 F8J       0.042700
     45 H9         -10.7230    -2.5870     1.4580 h1         1 F8J       0.029033
     46 H10         -9.4530    -3.4220     2.3540 h1         1 F8J       0.029033
     47 H11         -9.8410    -1.7370     2.7360 h1         1 F8J       0.029033
     48 H13          7.4190     1.9800     2.3120 ha         1 F8J       0.130000
     49 H14         -1.3890    -2.9720    -1.6610 ha         1 F8J       0.127000
     50 H15         10.4870     0.1780    -0.0940 ha         1 F8J       0.131000
     51 H16          5.8220     0.2000     1.7110 ha         1 F8J       0.133000
     52 H17         -3.7030    -2.1710    -1.8540 ha         1 F8J       0.135000
     53 H18          7.4530    -3.5240    -1.4490 h4         1 F8J       0.161000
     54 H19         -0.2710     0.4740     0.6330 ha         1 F8J       0.153000
     55 H20         -4.8360     2.3810     0.3030 h4         1 F8J       0.168000
     56 H21          4.3370    -0.4950    -0.3810 h1         1 F8J       0.075200
     57 H22          4.4410    -1.6130    -1.7300 h1         1 F8J       0.075200
     58 H23          4.9360    -2.3650     1.1910 hc         1 F8J       0.045200
     59 H24          5.0640    -3.4640    -0.1710 hc         1 F8J       0.045200
     60 H25         -7.1540    -2.9080     1.9150 h1         1 F8J       0.035700
     61 H26         -7.4050    -1.1990     2.2860 h1         1 F8J       0.035700
     62 H27         -9.2340     0.0020     0.9900 h1         1 F8J       0.035700
     63 H28        -10.1400    -0.9520    -0.1890 h1         1 F8J       0.035700
     64 H29         -5.4560    -1.4500     0.8670 h1         1 F8J       0.038700
     65 H30         -6.3510    -2.4000    -0.3230 h1         1 F8J       0.038700
     66 H31         -8.1880    -1.2180    -1.6120 h1         1 F8J       0.038700
     67 H32         -8.4400     0.4940    -1.2550 h1         1 F8J       0.038700
     68 H33         -6.2770     0.9610    -1.7540 h1         1 F8J       0.037200
     69 H34         -5.7390    -0.6850    -2.0350 h1         1 F8J       0.037200
     70 H36          2.7210    -2.8930    -0.0780 hn         1 F8J       0.296500
     71 H37          0.6360    -2.8220    -0.2150 hn         1 F8J       0.304500
     72 H38          0.1380     3.3260     1.6330 hn         1 F8J       0.305500
     73 H39          9.5470    -2.1750    -1.3440 hn         1 F8J       0.301700
     74 CAC         -9.7400    -2.4650     1.9150 c3         1 F8J       0.153100
     75 CBB          1.7710    -1.2050    -0.6570 cs         1 F8J       0.613400
     76 CBJ          0.9880     4.3040    -0.0440 c3         1 F8J       0.114700
     77 H12          9.7190     1.9690     1.4270 ha         1 F8J       0.129000
     78 H35          0.9070     4.0090    -1.0920 h1         1 F8J       0.087700
@<TRIPOS>BOND
     1     1     2 1   
     2     1    15 1   
     3     1    29 1   
     4     2     3 1   
     5     2    37 1   
     6     2    38 1   
     7     3     4 2   
     8     3    32 1   
     9     5    39 1   
    10     5    40 1   
    11     5    41 1   
    12     5    76 1   
    13     6    42 1   
    14     6    43 1   
    15     6    44 1   
    16     6    76 1   
    17     7     8 ar  
    18     7    10 ar  
    19     7    77 1   
    20     8    11 ar  
    21     8    48 1   
    22     9    12 ar  
    23     9    23 ar  
    24     9    49 1   
    25    10    26 ar  
    26    10    50 1   
    27    11    27 ar  
    28    11    51 1   
    29    12    28 ar  
    30    12    52 1   
    31    13    24 2   
    32    13    33 1   
    33    13    53 1   
    34    14    23 ar  
    35    14    29 ar  
    36    14    54 1   
    37    15    25 2   
    38    15    55 1   
    39    16    17 1   
    40    16    30 1   
    41    16    56 1   
    42    16    57 1   
    43    17    24 1   
    44    17    58 1   
    45    17    59 1   
    46    18    20 1   
    47    18    34 1   
    48    18    60 1   
    49    18    61 1   
    50    19    21 1   
    51    19    34 1   
    52    19    62 1   
    53    19    63 1   
    54    20    35 1   
    55    20    64 1   
    56    20    65 1   
    57    21    35 1   
    58    21    66 1   
    59    21    67 1   
    60    22    25 1   
    61    22    35 1   
    62    22    68 1   
    63    22    69 1   
    64    23    31 1   
    65    24    27 1   
    66    25    28 1   
    67    26    27 ar  
    68    26    33 1   
    69    28    29 ar  
    70    30    70 1   
    71    30    75 1   
    72    31    71 1   
    73    31    75 1   
    74    32    72 1   
    75    32    76 1   
    76    33    73 1   
    77    34    74 1   
    78    36    75 2   
    79    45    74 1   
    80    46    74 1   
    81    47    74 1   
    82    76    78 1   
@<TRIPOS>SUBSTRUCTURE
     1 F8J         1 TEMP              0 ****  ****    0 ROOT
