@<TRIPOS>MOLECULE
F8K
   54    56     1     0     0
SMALL
bcc


@<TRIPOS>ATOM
      1 C1           5.0300     0.9830    -0.2670 ca         1 F8K      -0.154000
      2 C2           6.3540     0.6250    -0.0880 ca         1 F8K      -0.088000
      3 C3           6.7160    -0.6850     0.2040 ca         1 F8K      -0.202000
      4 C4           5.7210    -1.6520     0.3160 ca         1 F8K       0.144100
      5 C5           4.3840    -1.2950     0.1370 ca         1 F8K      -0.152000
      6 C6           4.0250     0.0160    -0.1560 cp         1 F8K      -0.017000
      7 C7           2.6060     0.3770    -0.3450 cp         1 F8K       0.011000
      8 C8           1.7180    -0.4870    -0.9740 ca         1 F8K      -0.130000
      9 C9           0.3900    -0.1280    -1.1580 ca         1 F8K      -0.128000
     10 C10         -0.0980     1.0860    -0.6920 ca         1 F8K       0.097600
     11 C11          0.8010     1.9680    -0.0580 ca         1 F8K       0.115100
     12 C12          2.1300     1.6140     0.1020 ca         1 F8K      -0.180000
     13 O13          5.9500    -2.9480     0.6050 os         1 F8K      -0.319900
     14 C14          7.2770    -3.3550     0.8740 c3         1 F8K       0.123700
     15 O15          0.2690     3.1340     0.3580 os         1 F8K      -0.337900
     16 C16          1.1210     4.1030     0.9330 c3         1 F8K       0.124700
     17 N17         -1.4140     1.4950    -0.8640 nu         1 F8K      -0.621000
     18 C18         -2.5560     0.7330    -0.8040 ca         1 F8K       0.254600
     19 C19         -2.5940    -0.5700    -0.2910 ca         1 F8K      -0.206000
     20 C20         -3.7890    -1.2640    -0.2420 ca         1 F8K      -0.050000
     21 C21         -4.9830    -0.6960    -0.6780 ca         1 F8K      -0.262300
     22 C22         -4.9430     0.6030    -1.1810 ca         1 F8K      -0.050000
     23 C23         -3.7570     1.3050    -1.2510 ca         1 F8K      -0.206000
     24 C24         -6.2650    -1.4570    -0.5920 c3         1 F8K       0.207100
     25 N25         -6.8230    -1.4800     0.8070 nx         1 F8K      -0.692400
     26 C26         -7.1460    -0.1250     1.3150 c3         1 F8K       0.101600
     27 C27         -8.0010    -2.3770     0.8900 c3         1 F8K       0.101600
     28 H1           4.7790     2.0060    -0.5160 ha         1 F8K       0.133000
     29 H2           7.1290     1.3750    -0.1820 ha         1 F8K       0.136000
     30 H3           7.7620    -0.9260     0.3390 ha         1 F8K       0.142000
     31 H4           3.6230    -2.0570     0.2550 ha         1 F8K       0.144000
     32 H5           2.0610    -1.4350    -1.3670 ha         1 F8K       0.148000
     33 H6          -0.2670    -0.7990    -1.6940 ha         1 F8K       0.140000
     34 H7           2.8090     2.2820     0.6150 ha         1 F8K       0.150000
     35 H8           7.9330    -3.2180     0.0100 h1         1 F8K       0.044367
     36 H9           7.7020    -2.8190     1.7260 h1         1 F8K       0.044367
     37 H10          7.2330    -4.4140     1.1130 h1         1 F8K       0.044367
     38 H11          1.5790     3.7450     1.8590 h1         1 F8K       0.048367
     39 H12          1.9110     4.4110     0.2430 h1         1 F8K       0.048367
     40 H13          0.4990     4.9650     1.1610 h1         1 F8K       0.048367
     41 H14         -1.5580     2.4850    -0.9800 hn         1 F8K       0.460800
     42 H15         -1.6980    -1.0440     0.0830 ha         1 F8K       0.157000
     43 H16         -3.7850    -2.2740     0.1530 ha         1 F8K       0.128000
     44 H17         -5.8540     1.0740    -1.5320 ha         1 F8K       0.128000
     45 H18         -3.7510     2.3100    -1.6560 ha         1 F8K       0.157000
     46 H19         -7.0410    -1.0280    -1.2250 hx         1 F8K       0.092200
     47 H20         -6.1300    -2.5010    -0.8740 hx         1 F8K       0.092200
     48 H21         -6.1010    -1.8710     1.4150 hn         1 F8K       0.443800
     49 H22         -7.9170     0.3070     0.6830 hx         1 F8K       0.097033
     50 H23         -7.5070    -0.2130     2.3350 hx         1 F8K       0.097033
     51 H24         -6.2540     0.4920     1.2930 hx         1 F8K       0.097033
     52 H25         -7.7110    -3.3730     0.5690 hx         1 F8K       0.097033
     53 H26         -8.3500    -2.4070     1.9180 hx         1 F8K       0.097033
     54 H27         -8.7830    -1.9880     0.2440 hx         1 F8K       0.097033
@<TRIPOS>BOND
     1     1     2 ar  
     2     1     6 ar  
     3     1    28 1   
     4     2     3 ar  
     5     2    29 1   
     6     3     4 ar  
     7     3    30 1   
     8     4     5 ar  
     9     4    13 1   
    10     5     6 ar  
    11     5    31 1   
    12     6     7 1   
    13     7     8 ar  
    14     7    12 ar  
    15     8     9 ar  
    16     8    32 1   
    17     9    10 ar  
    18     9    33 1   
    19    10    11 ar  
    20    10    17 1   
    21    11    12 ar  
    22    11    15 1   
    23    12    34 1   
    24    13    14 1   
    25    14    35 1   
    26    14    36 1   
    27    14    37 1   
    28    15    16 1   
    29    16    38 1   
    30    16    39 1   
    31    16    40 1   
    32    17    18 1   
    33    17    41 1   
    34    18    19 ar  
    35    18    23 ar  
    36    19    20 ar  
    37    19    42 1   
    38    20    21 ar  
    39    20    43 1   
    40    21    22 ar  
    41    21    24 1   
    42    22    23 ar  
    43    22    44 1   
    44    23    45 1   
    45    24    25 1   
    46    24    46 1   
    47    24    47 1   
    48    25    26 1   
    49    25    27 1   
    50    25    48 1   
    51    26    49 1   
    52    26    50 1   
    53    26    51 1   
    54    27    52 1   
    55    27    53 1   
    56    27    54 1   
@<TRIPOS>SUBSTRUCTURE
     1 F8K         1 TEMP              0 ****  ****    0 ROOT
