@<TRIPOS>MOLECULE
F8K
   54    56     1     0     0
SMALL
No Charge or Current Charge


@<TRIPOS>ATOM
      1 C1           5.1660     0.9740    -0.4310 ca         1 F8K      -0.136000
      2 C2           6.5280     0.6350    -0.3610 ca         1 F8K      -0.070000
      3 C3           6.9120    -0.6730    -0.0210 ca         1 F8K      -0.184000
      4 C4           5.9270    -1.6460     0.2490 ca         1 F8K       0.144100
      5 C5           4.5690    -1.2980     0.1750 ca         1 F8K      -0.134000
      6 C6           4.1570     0.0150    -0.1650 cp         1 F8K      -0.017000
      7 C7           2.7050     0.3750    -0.2400 cp         1 F8K       0.011000
      8 C8           1.7490    -0.5500    -0.7240 ca         1 F8K      -0.112000
      9 C9           0.3860    -0.2190    -0.7970 ca         1 F8K      -0.110000
     10 C10         -0.0670     1.0450    -0.3770 ca         1 F8K       0.236000
     11 C11          0.8760     1.9980     0.0890 ca         1 F8K       0.115100
     12 C12          2.2460     1.6550     0.1600 ca         1 F8K      -0.162000
     13 O13          6.2420    -2.9460     0.5910 os         1 F8K      -0.343100
     14 C14          7.6020    -3.4050     0.6960 c3         1 F8K       0.146900
     15 O15          0.4160     3.2540     0.4680 os         1 F8K      -0.361100
     16 C16          1.2930     4.2870     0.9540 c3         1 F8K       0.147900
     17 N17         -1.4280     1.3910    -0.4590 nu         1 F8K      -0.953000
     18 C18         -2.6170     0.6640    -0.5090 ca         1 F8K       0.393000
     19 C19         -2.7150    -0.6270     0.0360 ca         1 F8K      -0.188000
     20 C20         -3.9300    -1.3300    -0.0120 ca         1 F8K      -0.032000
     21 C21         -5.0610    -0.7370    -0.6000 ca         1 F8K      -0.262300
     22 C22         -4.9700     0.5620    -1.1330 ca         1 F8K      -0.032000
     23 C23         -3.7520     1.2580    -1.0790 ca         1 F8K      -0.188000
     24 C24         -6.3750    -1.4880    -0.6480 c3         1 F8K       0.178900
     25 N25         -7.1380    -1.3940     0.6590 nx         1 F8K      -0.663000
     26 C26         -7.7090     0.0090     0.9010 c3         1 F8K       0.073400
     27 C27         -8.2130    -2.4800     0.7780 c3         1 F8K       0.073400
     28 H1           4.8930     1.9880    -0.7100 ha         1 F8K       0.115000
     29 H2           7.2850     1.3860    -0.5730 ha         1 F8K       0.118000
     30 H3           7.9710    -0.9090     0.0270 ha         1 F8K       0.124000
     31 H4           3.8250    -2.0570     0.3990 ha         1 F8K       0.126000
     32 H5           2.0700    -1.5310    -1.0660 ha         1 F8K       0.130000
     33 H6          -0.3110    -0.9440    -1.2050 ha         1 F8K       0.122000
     34 H7           2.9710     2.3680     0.5370 ha         1 F8K       0.132000
     35 H8           8.1250    -3.2970    -0.2630 h1         1 F8K       0.044367
     36 H9           8.1470    -2.8380     1.4610 h1         1 F8K       0.044367
     37 H10          7.6250    -4.4650     0.9780 h1         1 F8K       0.044367
     38 H11          1.8090     3.9640     1.8680 h1         1 F8K       0.048367
     39 H12          2.0450     4.5490     0.1980 h1         1 F8K       0.048367
     40 H13          0.7210     5.1920     1.1900 h1         1 F8K       0.048367
     41 H14         -1.5750     2.4010    -0.4110 hn         1 F8K       0.516000
     42 H15         -1.8570    -1.0820     0.5190 ha         1 F8K       0.139000
     43 H16         -3.9920    -2.3300     0.4130 ha         1 F8K       0.110000
     44 H17         -5.8420     1.0320    -1.5850 ha         1 F8K       0.110000
     45 H18         -3.6890     2.2610    -1.4920 ha         1 F8K       0.139000
     46 H19         -7.0120    -1.1060    -1.4500 hx         1 F8K       0.092200
     47 H20         -6.1820    -2.5440    -0.8560 hx         1 F8K       0.092200
     48 H21         -6.4350    -1.5730     1.4130 hn         1 F8K       0.499000
     49 H22         -8.4410     0.2430     0.1260 hx         1 F8K       0.097033
     50 H23         -8.1930     0.0480     1.8800 hx         1 F8K       0.097033
     51 H24         -6.9010     0.7440     0.8680 hx         1 F8K       0.097033
     52 H25         -7.7580    -3.4670     0.6620 hx         1 F8K       0.097033
     53 H26         -8.6950    -2.4180     1.7570 hx         1 F8K       0.097033
     54 H27         -8.9650    -2.3360    -0.0020 hx         1 F8K       0.097033
@<TRIPOS>BOND
     1     1     2 ar  
     2     1     6 ar  
     3     1    28 1   
     4     2     3 ar  
     5     2    29 1   
     6     3     4 ar  
     7     3    30 1   
     8     4     5 ar  
     9     4    13 1   
    10     5     6 ar  
    11     5    31 1   
    12     6     7 1   
    13     7     8 ar  
    14     7    12 ar  
    15     8     9 ar  
    16     8    32 1   
    17     9    10 ar  
    18     9    33 1   
    19    10    11 ar  
    20    10    17 1   
    21    11    12 ar  
    22    11    15 1   
    23    12    34 1   
    24    13    14 1   
    25    14    35 1   
    26    14    36 1   
    27    14    37 1   
    28    15    16 1   
    29    16    38 1   
    30    16    39 1   
    31    16    40 1   
    32    17    18 1   
    33    17    41 1   
    34    18    19 ar  
    35    18    23 ar  
    36    19    20 ar  
    37    19    42 1   
    38    20    21 ar  
    39    20    43 1   
    40    21    22 ar  
    41    21    24 1   
    42    22    23 ar  
    43    22    44 1   
    44    23    45 1   
    45    24    25 1   
    46    24    46 1   
    47    24    47 1   
    48    25    26 1   
    49    25    27 1   
    50    25    48 1   
    51    26    49 1   
    52    26    50 1   
    53    26    51 1   
    54    27    52 1   
    55    27    53 1   
    56    27    54 1   
@<TRIPOS>SUBSTRUCTURE
     1 F8K         1 TEMP              0 ****  ****    0 ROOT
