@<TRIPOS>MOLECULE
F8M
   43    45     1     0     0
SMALL
No Charge or Current Charge


@<TRIPOS>ATOM
      1 C01          8.2850     1.7830    -0.4740 c3         1 F8M       0.152100
      2 C03          7.1430     0.3880    -2.1360 c3         1 F8M       0.152100
      3 C04          6.2730     0.5380     0.1900 c3         1 F8M       0.164800
      4 C05          4.8140     0.1360    -0.1290 c3         1 F8M      -0.077400
      5 C06          4.0660    -0.4250     1.0980 c3         1 F8M      -0.021100
      6 C07          2.6350    -0.8230     0.7620 ca         1 F8M      -0.137300
      7 C08          2.3410    -2.1400     0.3630 ca         1 F8M      -0.068000
      8 C09          1.0200    -2.5020     0.0490 ca         1 F8M      -0.152000
      9 C10         -0.0090    -1.5520     0.1290 ca         1 F8M       0.178100
     10 C12         -2.3580    -1.0810    -0.1370 ca         1 F8M       0.651300
     11 C14         -4.5900    -0.7900    -0.4230 ca         1 F8M       0.698900
     12 C16         -4.5630     0.5560    -0.0820 ca         1 F8M      -0.294600
     13 C17         -5.7960     1.3930    -0.0900 c          1 F8M       0.734600
     14 C20         -3.3200     1.1030     0.2730 ca         1 F8M       0.050000
     15 C21         -2.1980     0.2550     0.2410 ca         1 F8M      -0.381600
     16 C22         -0.8460     0.7460     0.5940 c          1 F8M       0.622300
     17 C24          0.2720    -0.2370     0.5220 ca         1 F8M      -0.221600
     18 C25          1.5980     0.1280     0.8380 ca         1 F8M      -0.025000
     19 N02          6.9910     1.2190    -0.9180 n3         1 F8M      -0.709600
     20 N13         -3.5510    -1.5990    -0.4690 nb         1 F8M      -0.845000
     21 N15         -5.6660    -1.4770    -0.7690 nv         1 F8M      -1.070900
     22 O11         -1.2870    -1.9340    -0.1850 os         1 F8M      -0.343400
     23 O18         -6.6930     1.1110    -0.8710 o          1 F8M      -0.717500
     24 O19         -5.8310     2.3610     0.6530 o          1 F8M      -0.717500
     25 O23         -0.6610     1.9090     0.9290 o          1 F8M      -0.569100
     26 H1           8.7600     2.3530    -1.2850 h1         1 F8M       0.027033
     27 H2           8.1420     2.4650     0.3750 h1         1 F8M       0.027033
     28 H3           8.9750     0.9860    -0.1640 h1         1 F8M       0.027033
     29 H4           6.1670     0.1110    -2.5530 h1         1 F8M       0.027033
     30 H5           7.6880     0.9390    -2.9150 h1         1 F8M       0.027033
     31 H6           7.7010    -0.5330    -1.9150 h1         1 F8M       0.027033
     32 H7           6.2470     1.2070     1.0610 h1         1 F8M       0.025700
     33 H8           6.8260    -0.3610     0.4960 h1         1 F8M       0.025700
     34 H9           4.2760     1.0130    -0.5080 hc         1 F8M       0.052700
     35 H10          4.8020    -0.6210    -0.9210 hc         1 F8M       0.052700
     36 H11          4.6160    -1.2900     1.4900 hc         1 F8M       0.039700
     37 H12          4.0690     0.3270     1.8980 hc         1 F8M       0.039700
     38 H13          3.1330    -2.8830     0.2960 ha         1 F8M       0.103000
     39 H14          0.7940    -3.5190    -0.2590 ha         1 F8M       0.127000
     40 H15         -3.2290     2.1520     0.5540 ha         1 F8M       0.154000
     41 H16          1.8270     1.1480     1.1430 ha         1 F8M       0.131000
     42 H18         -6.4210    -0.8840    -1.1060 hn         1 F8M       0.518000
     43 H19         -5.4590    -2.2990    -1.3170 hn         1 F8M       0.518000
@<TRIPOS>BOND
     1     1    19 1   
     2     1    26 1   
     3     1    27 1   
     4     1    28 1   
     5     2    19 1   
     6     2    29 1   
     7     2    30 1   
     8     2    31 1   
     9     3     4 1   
    10     3    19 1   
    11     3    32 1   
    12     3    33 1   
    13     4     5 1   
    14     4    34 1   
    15     4    35 1   
    16     5     6 1   
    17     5    36 1   
    18     5    37 1   
    19     6     7 ar  
    20     6    18 ar  
    21     7     8 ar  
    22     7    38 1   
    23     8     9 ar  
    24     8    39 1   
    25     9    17 ar  
    26     9    22 1   
    27    10    15 ar  
    28    10    20 ar  
    29    10    22 1   
    30    11    12 ar  
    31    11    20 ar  
    32    11    21 1   
    33    12    13 1   
    34    12    14 ar  
    35    13    23 1   
    36    13    24 1   
    37    14    15 ar  
    38    14    40 1   
    39    15    16 1   
    40    16    17 1   
    41    16    25 2   
    42    17    18 ar  
    43    18    41 1   
    44    21    42 1   
    45    21    43 1   
@<TRIPOS>SUBSTRUCTURE
     1 F8M         1 TEMP              0 ****  ****    0 ROOT
