@<TRIPOS>MOLECULE
F8M
   43    45     1     0     0
SMALL
bcc


@<TRIPOS>ATOM
      1 C01          8.1440     1.8010    -0.4680 c3         1 F8M       0.152100
      2 C03          7.2220     0.2260    -1.9950 c3         1 F8M       0.152100
      3 C04          6.2040     0.5700     0.1640 c3         1 F8M       0.164800
      4 C05          4.7810     0.1550    -0.1850 c3         1 F8M      -0.077400
      5 C06          4.0470    -0.3900     1.0420 c3         1 F8M      -0.021100
      6 C07          2.6320    -0.7790     0.7230 ca         1 F8M      -0.137300
      7 C08          2.3310    -2.0580     0.2370 ca         1 F8M      -0.086000
      8 C09          1.0440    -2.4190    -0.1050 ca         1 F8M      -0.170000
      9 C10          0.0210    -1.4880     0.0350 ca         1 F8M       0.178100
     10 C12         -2.2670    -1.0530    -0.2120 ca         1 F8M       0.716600
     11 C14         -4.5120    -0.8400    -0.5310 ca         1 F8M       0.764200
     12 C16         -4.4970     0.5220    -0.0740 ca         1 F8M      -0.359900
     13 C17         -5.7380     1.3970    -0.0030 c          1 F8M       0.945200
     14 C20         -3.2830     1.0230     0.3060 ca         1 F8M       0.032000
     15 C21         -2.1090     0.2530     0.2550 ca         1 F8M      -0.446900
     16 C22         -0.8150     0.7630     0.6520 c          1 F8M       0.622300
     17 C24          0.2820    -0.2070     0.5130 ca         1 F8M      -0.221600
     18 C25          1.5960     0.1270     0.8520 ca         1 F8M      -0.043000
     19 N02          6.9290     1.1720    -0.9400 n3         1 F8M      -0.709600
     20 N13         -3.4010    -1.5850    -0.5890 nb         1 F8M      -0.845000
     21 N15         -5.6450    -1.4150    -0.9180 nv         1 F8M      -0.960500
     22 O11         -1.2240    -1.8940    -0.3150 os         1 F8M      -0.343400
     23 O18         -6.8250     0.8850    -0.3630 o          1 F8M      -0.822800
     24 O19         -5.5790     2.5580     0.4070 o          1 F8M      -0.822800
     25 O23         -0.6340     1.9010     1.0660 o          1 F8M      -0.569100
     26 H1           8.6650     2.2790    -1.2980 h1         1 F8M       0.027033
     27 H2           7.9080     2.5710     0.2680 h1         1 F8M       0.027033
     28 H3           8.8480     1.0950     0.0030 h1         1 F8M       0.027033
     29 H4           6.3070    -0.1610    -2.4430 h1         1 F8M       0.027033
     30 H5           7.7870     0.7190    -2.7860 h1         1 F8M       0.027033
     31 H6           7.8160    -0.6370    -1.6490 h1         1 F8M       0.027033
     32 H7           6.1550     1.3080     0.9700 h1         1 F8M       0.025700
     33 H8           6.7470    -0.3000     0.5740 h1         1 F8M       0.025700
     34 H9           4.2390     1.0170    -0.5840 hc         1 F8M       0.052700
     35 H10          4.7760    -0.6120    -0.9640 hc         1 F8M       0.052700
     36 H11          4.5910    -1.2550     1.4330 hc         1 F8M       0.039700
     37 H12          4.0490     0.3640     1.8340 hc         1 F8M       0.039700
     38 H13          3.1240    -2.7880     0.1300 ha         1 F8M       0.121000
     39 H14          0.8240    -3.4120    -0.4740 ha         1 F8M       0.145000
     40 H15         -3.2230     2.0450     0.6590 ha         1 F8M       0.172000
     41 H16          1.7960     1.1240     1.2260 ha         1 F8M       0.149000
     42 H18         -6.4830    -0.8420    -0.8760 hn         1 F8M       0.462800
     43 H19         -5.6480    -2.3630    -1.2520 hn         1 F8M       0.462800
@<TRIPOS>BOND
     1     1    19 1   
     2     1    26 1   
     3     1    27 1   
     4     1    28 1   
     5     2    19 1   
     6     2    29 1   
     7     2    30 1   
     8     2    31 1   
     9     3     4 1   
    10     3    19 1   
    11     3    32 1   
    12     3    33 1   
    13     4     5 1   
    14     4    34 1   
    15     4    35 1   
    16     5     6 1   
    17     5    36 1   
    18     5    37 1   
    19     6     7 ar  
    20     6    18 ar  
    21     7     8 ar  
    22     7    38 1   
    23     8     9 ar  
    24     8    39 1   
    25     9    17 ar  
    26     9    22 1   
    27    10    15 ar  
    28    10    20 ar  
    29    10    22 1   
    30    11    12 ar  
    31    11    20 ar  
    32    11    21 1   
    33    12    13 1   
    34    12    14 ar  
    35    13    23 1   
    36    13    24 1   
    37    14    15 ar  
    38    14    40 1   
    39    15    16 1   
    40    16    17 1   
    41    16    25 2   
    42    17    18 ar  
    43    18    41 1   
    44    21    42 1   
    45    21    43 1   
@<TRIPOS>SUBSTRUCTURE
     1 F8M         1 TEMP              0 ****  ****    0 ROOT
