@<TRIPOS>MOLECULE
F8N
   63    66     1     0     0
SMALL
No Charge or Current Charge


@<TRIPOS>ATOM
      1 C1           0.6330     1.8830    -0.2980 c6         1 F8N      -0.116000
      2 N4           6.6460    -1.6770     0.3560 na         1 F8N      -0.170500
      3 C5           6.3970    -3.0260     0.2050 cc         1 F8N       0.387400
      4 C6          -3.0740    -1.0020    -0.9030 cp         1 F8N      -0.033000
      5 C8           0.1700     1.0120    -1.5330 c3         1 F8N      -0.021100
      6 C11         -2.1690     0.0640    -1.1340 ca         1 F8N      -0.087000
      7 C13         -5.3340    -1.5190     0.1350 ca         1 F8N      -0.136000
      8 C14         -0.7820    -0.1570    -1.2600 ca         1 F8N      -0.085300
      9 C23         -5.1930     0.2630    -1.5050 ca         1 F8N      -0.139000
     10 C24         -2.5440    -2.3140    -0.8170 ca         1 F8N      -0.091000
     11 C25         -1.1680    -2.5470    -0.9670 ca         1 F8N      -0.107000
     12 C2           1.6620     1.0450     0.5490 c          1 F8N       0.605100
     13 N16          2.9020     1.6020     0.7890 ns         1 F8N      -0.513900
     14 C27          4.0050     0.9280     1.4770 c3         1 F8N       0.106000
     15 C19          4.7580    -0.0400     0.5440 c3         1 F8N      -0.119400
     16 C18          5.9280    -0.7550     1.2480 c3         1 F8N       0.075600
     17 C10          7.6880    -1.3540    -0.4880 cc         1 F8N      -0.236000
     18 C9           8.0290    -2.5240    -1.1150 cd         1 F8N       0.231900
     19 N3           7.2260    -3.5600    -0.6810 nd         1 F8N      -0.670000
     20 C21          1.2390     3.2310    -0.8660 c6         1 F8N      -0.102400
     21 C30          1.4910     4.3320     0.2100 c6         1 F8N       0.152600
     22 O15          0.3010     4.5500     0.9900 os         1 F8N      -0.450000
     23 C29         -0.1700     3.3700     1.6670 c6         1 F8N       0.152600
     24 C20         -0.5680     2.3110     0.6130 c6         1 F8N      -0.102400
     25 C28         -0.2910    -1.4750    -1.1940 ca         1 F8N      -0.097000
     26 C7          -4.5440    -0.7510    -0.7570 cp         1 F8N       0.000000
     27 C26         -6.5710     0.4980    -1.3670 ca         1 F8N      -0.074000
     28 C31         -7.3330    -0.2750    -0.4770 ca         1 F8N      -0.195000
     29 C17         -6.7120    -1.2900     0.2800 ca         1 F8N       0.140100
     30 O22         -7.4060    -2.0810     1.1740 os         1 F8N      -0.343100
     31 C32         -8.8190    -1.9270     1.3970 c3         1 F8N       0.149900
     32 H1           5.6190    -3.5410     0.7570 h5         1 F8N       0.052100
     33 H2          -0.3280     1.6610    -2.2640 hc         1 F8N       0.048700
     34 H3           1.0590     0.6430    -2.0600 hc         1 F8N       0.048700
     35 H4          -2.5500     1.0780    -1.2060 ha         1 F8N       0.113000
     36 H5          -4.8700    -2.2960     0.7360 ha         1 F8N       0.130000
     37 H6          -4.6270     0.8650    -2.2100 ha         1 F8N       0.116000
     38 H7          -3.2070    -3.1600    -0.6550 ha         1 F8N       0.118000
     39 H8          -0.7800    -3.5620    -0.9100 ha         1 F8N       0.113000
     40 H9           3.0680     2.5260     0.4140 hn         1 F8N       0.313500
     41 H10          4.7000     1.6920     1.8520 h1         1 F8N       0.053200
     42 H11          3.6090     0.3800     2.3430 h1         1 F8N       0.053200
     43 H12          4.0590    -0.7910     0.1570 hc         1 F8N       0.057700
     44 H13          5.1420     0.5180    -0.3190 hc         1 F8N       0.057700
     45 H14          5.5470    -1.3220     2.1080 h1         1 F8N       0.064200
     46 H15          6.6390    -0.0100     1.6270 h1         1 F8N       0.064200
     47 H16          8.0960    -0.3560    -0.5800 h4         1 F8N       0.156000
     48 H17          8.8070    -2.6780    -1.8530 h4         1 F8N       0.038100
     49 H18          2.1650     3.0340    -1.4240 hc         1 F8N       0.056200
     50 H19          0.5470     3.6610    -1.6030 hc         1 F8N       0.056200
     51 H20          2.3150     4.0670     0.8850 h1         1 F8N       0.051200
     52 H21          1.7650     5.2740    -0.2860 h1         1 F8N       0.051200
     53 H22          0.6140     2.9850     2.3370 h1         1 F8N       0.051200
     54 H23         -1.0440     3.6360     2.2780 h1         1 F8N       0.051200
     55 H24         -1.3770     2.7260    -0.0030 hc         1 F8N       0.056200
     56 H25         -0.9890     1.4340     1.1250 hc         1 F8N       0.056200
     57 H26          0.7720    -1.6690    -1.3120 ha         1 F8N       0.106000
     58 H27         -7.0490     1.2800    -1.9550 ha         1 F8N       0.111000
     59 H28         -8.3960    -0.0730    -0.3890 ha         1 F8N       0.117000
     60 H29         -9.1670    -2.6520     2.1430 h1         1 F8N       0.040367
     61 H30         -9.0480    -0.9200     1.7700 h1         1 F8N       0.040367
     62 H31         -9.3820    -2.0960     0.4700 h1         1 F8N       0.040367
     63 O12          1.4360    -0.1050     0.8950 o          1 F8N      -0.594100
@<TRIPOS>BOND
     1     1     5 1   
     2     1    12 1   
     3     1    20 1   
     4     1    24 1   
     5     2     3 1   
     6     2    16 1   
     7     2    17 1   
     8     3    19 2   
     9     3    32 1   
    10     4     6 ar  
    11     4    10 ar  
    12     4    26 1   
    13     5     8 1   
    14     5    33 1   
    15     5    34 1   
    16     6     8 ar  
    17     6    35 1   
    18     7    26 ar  
    19     7    29 ar  
    20     7    36 1   
    21     8    25 ar  
    22     9    26 ar  
    23     9    27 ar  
    24     9    37 1   
    25    10    11 ar  
    26    10    38 1   
    27    11    25 ar  
    28    11    39 1   
    29    12    13 1   
    30    12    63 2   
    31    13    14 1   
    32    13    40 1   
    33    14    15 1   
    34    14    41 1   
    35    14    42 1   
    36    15    16 1   
    37    15    43 1   
    38    15    44 1   
    39    16    45 1   
    40    16    46 1   
    41    17    18 2   
    42    17    47 1   
    43    18    19 1   
    44    18    48 1   
    45    20    21 1   
    46    20    49 1   
    47    20    50 1   
    48    21    22 1   
    49    21    51 1   
    50    21    52 1   
    51    22    23 1   
    52    23    24 1   
    53    23    53 1   
    54    23    54 1   
    55    24    55 1   
    56    24    56 1   
    57    25    57 1   
    58    27    28 ar  
    59    27    58 1   
    60    28    29 ar  
    61    28    59 1   
    62    29    30 1   
    63    30    31 1   
    64    31    60 1   
    65    31    61 1   
    66    31    62 1   
@<TRIPOS>SUBSTRUCTURE
     1 F8N         1 TEMP              0 ****  ****    0 ROOT
