@<TRIPOS>MOLECULE
F8N
   63    66     1     0     0
SMALL
bcc


@<TRIPOS>ATOM
      1 C1           0.5150     2.1160    -0.3420 c6         1 F8N      -0.116000
      2 N4           6.6890    -1.7420     0.3550 na         1 F8N      -0.191900
      3 C5           7.0050    -2.7870    -0.4390 cc         1 F8N       0.387400
      4 C6          -3.0320    -0.8700    -0.7370 cp         1 F8N      -0.033000
      5 C8          -0.0070     1.3000    -1.5520 c3         1 F8N      -0.021100
      6 C11         -2.2320     0.2200    -1.0840 ca         1 F8N      -0.105000
      7 C13         -5.2000    -1.4150     0.3550 ca         1 F8N      -0.154000
      8 C14         -0.8510     0.1060    -1.2030 ca         1 F8N      -0.085300
      9 C23         -5.2030     0.1120    -1.5000 ca         1 F8N      -0.157000
     10 C24         -2.4180    -2.1010    -0.5080 ca         1 F8N      -0.109000
     11 C25         -1.0440    -2.2320    -0.6350 ca         1 F8N      -0.125000
     12 C2           1.2690     1.1640     0.5970 c          1 F8N       0.672100
     13 N16          2.4510     0.7080     0.1500 ns         1 F8N      -0.580900
     14 C27          3.2330    -0.2610     0.8870 c3         1 F8N       0.106000
     15 C19          4.5620    -0.5040     0.1930 c3         1 F8N      -0.119400
     16 C18          5.4080    -1.4940     0.9810 c3         1 F8N       0.046300
     17 C10          7.7860    -0.9280     0.3970 cc         1 F8N      -0.268600
     18 C9           8.7270    -1.5420    -0.3810 cd         1 F8N       0.297200
     19 N3           8.2280    -2.7030    -0.8980 nd         1 F8N      -0.670000
     20 C21          1.4190     3.2410    -0.8720 c6         1 F8N      -0.102400
     21 C30          1.8090     4.2180     0.2240 c6         1 F8N       0.129400
     22 O15          0.6770     4.7930     0.8350 os         1 F8N      -0.403600
     23 C29         -0.1610     3.8160     1.4180 c6         1 F8N       0.129400
     24 C20         -0.6420     2.7870     0.4060 c6         1 F8N      -0.102400
     25 C28         -0.2650    -1.1390    -0.9840 ca         1 F8N      -0.115000
     26 C7          -4.4990    -0.7210    -0.6240 cp         1 F8N       0.000000
     27 C26         -6.5750     0.2330    -1.3810 ca         1 F8N      -0.092000
     28 C31         -7.2800    -0.4600    -0.4030 ca         1 F8N      -0.213000
     29 C17         -6.5850    -1.2930     0.4700 ca         1 F8N       0.140100
     30 O22         -7.1590    -2.0080     1.4570 os         1 F8N      -0.319900
     31 C32         -8.5600    -1.9200     1.6280 c3         1 F8N       0.126700
     32 H1           6.3030    -3.5830    -0.6410 h5         1 F8N       0.052100
     33 H2          -0.5800     1.9900    -2.1770 hc         1 F8N       0.048700
     34 H3           0.8450     0.9780    -2.1560 hc         1 F8N       0.048700
     35 H4          -2.6950     1.1840    -1.2560 ha         1 F8N       0.131000
     36 H5          -4.6740    -2.0480     1.0600 ha         1 F8N       0.148000
     37 H6          -4.6820     0.6430    -2.2860 ha         1 F8N       0.134000
     38 H7          -3.0160    -2.9690    -0.2610 ha         1 F8N       0.136000
     39 H8          -0.5800    -3.1970    -0.4740 ha         1 F8N       0.131000
     40 H9           2.7690     0.9620    -0.7710 hn         1 F8N       0.313500
     41 H10          3.4080     0.1080     1.9010 h1         1 F8N       0.053200
     42 H11          2.6820    -1.2020     0.9830 h1         1 F8N       0.053200
     43 H12          4.3930    -0.8950    -0.8150 hc         1 F8N       0.057700
     44 H13          5.1030     0.4410     0.0900 hc         1 F8N       0.057700
     45 H14          4.8910    -2.4500     1.0720 h1         1 F8N       0.064200
     46 H15          5.5850    -1.1260     1.9920 h1         1 F8N       0.064200
     47 H16          7.8030    -0.0160     0.9690 h4         1 F8N       0.174000
     48 H17          9.7330    -1.2100    -0.5870 h4         1 F8N       0.038100
     49 H18          2.3240     2.8610    -1.3550 hc         1 F8N       0.056200
     50 H19          0.8720     3.7810    -1.6510 hc         1 F8N       0.056200
     51 H20          2.4420     3.7170     0.9710 h1         1 F8N       0.051200
     52 H21          2.3970     5.0370    -0.1950 h1         1 F8N       0.051200
     53 H22          0.3550     3.3170     2.2480 h1         1 F8N       0.051200
     54 H23         -1.0160     4.3470     1.8410 h1         1 F8N       0.051200
     55 H24         -1.2800     3.2830    -0.3330 hc         1 F8N       0.056200
     56 H25         -1.2670     2.0530     0.9150 hc         1 F8N       0.056200
     57 H26          0.8070    -1.2580    -1.0960 ha         1 F8N       0.124000
     58 H27         -7.1190     0.8720    -2.0650 ha         1 F8N       0.129000
     59 H28         -8.3530    -0.3380    -0.3390 ha         1 F8N       0.135000
     60 H29         -8.8090    -2.5640     2.4670 h1         1 F8N       0.040367
     61 H30         -8.8820    -0.9010     1.8580 h1         1 F8N       0.040367
     62 H31         -9.1020    -2.2690     0.7450 h1         1 F8N       0.040367
     63 O12          0.8180     0.8040     1.6750 o          1 F8N      -0.594100
@<TRIPOS>BOND
     1     1     5 1   
     2     1    12 1   
     3     1    20 1   
     4     1    24 1   
     5     2     3 1   
     6     2    16 1   
     7     2    17 1   
     8     3    19 2   
     9     3    32 1   
    10     4     6 ar  
    11     4    10 ar  
    12     4    26 1   
    13     5     8 1   
    14     5    33 1   
    15     5    34 1   
    16     6     8 ar  
    17     6    35 1   
    18     7    26 ar  
    19     7    29 ar  
    20     7    36 1   
    21     8    25 ar  
    22     9    26 ar  
    23     9    27 ar  
    24     9    37 1   
    25    10    11 ar  
    26    10    38 1   
    27    11    25 ar  
    28    11    39 1   
    29    12    13 1   
    30    12    63 2   
    31    13    14 1   
    32    13    40 1   
    33    14    15 1   
    34    14    41 1   
    35    14    42 1   
    36    15    16 1   
    37    15    43 1   
    38    15    44 1   
    39    16    45 1   
    40    16    46 1   
    41    17    18 2   
    42    17    47 1   
    43    18    19 1   
    44    18    48 1   
    45    20    21 1   
    46    20    49 1   
    47    20    50 1   
    48    21    22 1   
    49    21    51 1   
    50    21    52 1   
    51    22    23 1   
    52    23    24 1   
    53    23    53 1   
    54    23    54 1   
    55    24    55 1   
    56    24    56 1   
    57    25    57 1   
    58    27    28 ar  
    59    27    58 1   
    60    28    29 ar  
    61    28    59 1   
    62    29    30 1   
    63    30    31 1   
    64    31    60 1   
    65    31    61 1   
    66    31    62 1   
@<TRIPOS>SUBSTRUCTURE
     1 F8N         1 TEMP              0 ****  ****    0 ROOT
