@<TRIPOS>MOLECULE
F8O
   31    30     1     0     0
SMALL
No Charge or Current Charge


@<TRIPOS>ATOM
      1 C42         19.7620    12.2140     1.6780 c          1 F8O       0.575900
      2 C43         20.4870    11.0550     0.9680 c3         1 F8O      -0.183700
      3 C44         19.5750    10.3300    -0.0650 c3         1 F8O      -0.058400
      4 C45         18.2060     9.8100     0.4750 c3         1 F8O      -0.059700
      5 C46         17.3470     9.1360    -0.6370 c3         1 F8O      -0.069400
      6 C49         16.9940    10.0060    -1.8720 c3         1 F8O      -0.071400
      7 C50         16.2190    11.3040    -1.5460 c3         1 F8O      -0.080400
      8 C51         15.7970    12.0840    -2.8060 c3         1 F8O      -0.087100
      9 C52         21.8120    11.5360     0.3280 c3         1 F8O      -0.085100
     10 C53         18.3780     8.8360     1.6680 c3         1 F8O      -0.090100
     11 O47         19.3090    13.1920     1.0930 o          1 F8O      -0.515100
     12 H1          19.6490    12.1030     2.7790 h4         1 F8O      -0.021800
     13 H2          20.7610    10.3370     1.7490 hc         1 F8O       0.065700
     14 H3          20.1280     9.4860    -0.4960 hc         1 F8O       0.046700
     15 H4          19.3910    11.0290    -0.8900 hc         1 F8O       0.046700
     16 H5          17.6370    10.6680     0.8510 hc         1 F8O       0.058700
     17 H6          16.4070     8.7870    -0.1910 hc         1 F8O       0.035700
     18 H7          17.8680     8.2360    -0.9890 hc         1 F8O       0.035700
     19 H8          16.3830     9.3960    -2.5490 hc         1 F8O       0.035200
     20 H9          17.9050    10.2510    -2.4290 hc         1 F8O       0.035200
     21 H10         16.8410    11.9610    -0.9250 hc         1 F8O       0.044200
     22 H11         15.3250    11.0590    -0.9610 hc         1 F8O       0.044200
     23 H12         15.2560    12.9960    -2.5280 hc         1 F8O       0.029367
     24 H13         16.6750    12.3720    -3.3960 hc         1 F8O       0.029367
     25 H14         15.1400    11.4750    -3.4380 hc         1 F8O       0.029367
     26 H15         22.4590    12.0030     1.0820 hc         1 F8O       0.040033
     27 H16         22.3590    10.6930    -0.1120 hc         1 F8O       0.040033
     28 H17         21.6220    12.2710    -0.4630 hc         1 F8O       0.040033
     29 H18         18.8280     9.3380     2.5320 hc         1 F8O       0.030367
     30 H19         17.4060     8.4440     1.9910 hc         1 F8O       0.030367
     31 H20         19.0130     7.9860     1.3900 hc         1 F8O       0.030367
@<TRIPOS>BOND
     1     1     2 1   
     2     1    11 2   
     3     1    12 1   
     4     2     3 1   
     5     2     9 1   
     6     2    13 1   
     7     3     4 1   
     8     3    14 1   
     9     3    15 1   
    10     4     5 1   
    11     4    10 1   
    12     4    16 1   
    13     5     6 1   
    14     5    17 1   
    15     5    18 1   
    16     6     7 1   
    17     6    19 1   
    18     6    20 1   
    19     7     8 1   
    20     7    21 1   
    21     7    22 1   
    22     8    23 1   
    23     8    24 1   
    24     8    25 1   
    25     9    26 1   
    26     9    27 1   
    27     9    28 1   
    28    10    29 1   
    29    10    30 1   
    30    10    31 1   
@<TRIPOS>SUBSTRUCTURE
     1 F8O         1 TEMP              0 ****  ****    0 ROOT
