@<TRIPOS>MOLECULE
F8O
   31    30     1     0     0
SMALL
abcg2


@<TRIPOS>ATOM
      1 C42         19.8220    12.4290     1.4160 c          1 F8O       0.575900
      2 C43         20.3840    11.0970     1.0090 c3         1 F8O      -0.183700
      3 C44         19.5560    10.3570    -0.0350 c3         1 F8O      -0.058400
      4 C45         18.2050     9.8120     0.4370 c3         1 F8O      -0.059700
      5 C46         17.4360     9.1690    -0.7240 c3         1 F8O      -0.069400
      6 C49         17.0530    10.0880    -1.8820 c3         1 F8O      -0.071400
      7 C50         16.1830    11.2750    -1.4830 c3         1 F8O      -0.080400
      8 C51         15.6840    12.0640    -2.6850 c3         1 F8O      -0.087100
      9 C52         21.8200    11.3450     0.5240 c3         1 F8O      -0.085100
     10 C53         18.3730     8.7830     1.5530 c3         1 F8O      -0.090100
     11 O47         18.8980    13.0010     0.8910 o          1 F8O      -0.515100
     12 H1          20.3620    12.9000     2.2600 h4         1 F8O      -0.021800
     13 H2          20.4590    10.5110     1.9330 hc         1 F8O       0.065700
     14 H3          20.1510     9.5140    -0.4020 hc         1 F8O       0.046700
     15 H4          19.4180    11.0220    -0.8930 hc         1 F8O       0.046700
     16 H5          17.6030    10.6370     0.8300 hc         1 F8O       0.058700
     17 H6          16.5180     8.7260    -0.3220 hc         1 F8O       0.035700
     18 H7          18.0280     8.3320    -1.1110 hc         1 F8O       0.035700
     19 H8          16.5130     9.4890    -2.6230 hc         1 F8O       0.035200
     20 H9          17.9470    10.4510    -2.3990 hc         1 F8O       0.035200
     21 H10         16.7420    11.9420    -0.8220 hc         1 F8O       0.044200
     22 H11         15.3290    10.9170    -0.8980 hc         1 F8O       0.044200
     23 H12         15.0660    12.9100    -2.3820 hc         1 F8O       0.029367
     24 H13         16.5160    12.4580    -3.2710 hc         1 F8O       0.029367
     25 H14         15.0850    11.4370    -3.3480 hc         1 F8O       0.029367
     26 H15         22.4090    11.8930     1.2600 hc         1 F8O       0.040033
     27 H16         22.3190    10.3940     0.3420 hc         1 F8O       0.040033
     28 H17         21.8250    11.9140    -0.4060 hc         1 F8O       0.040033
     29 H18         18.8440     9.2010     2.4430 hc         1 F8O       0.030367
     30 H19         17.4050     8.3840     1.8610 hc         1 F8O       0.030367
     31 H20         18.9850     7.9410     1.2190 hc         1 F8O       0.030367
@<TRIPOS>BOND
     1     1     2 1   
     2     1    11 2   
     3     1    12 1   
     4     2     3 1   
     5     2     9 1   
     6     2    13 1   
     7     3     4 1   
     8     3    14 1   
     9     3    15 1   
    10     4     5 1   
    11     4    10 1   
    12     4    16 1   
    13     5     6 1   
    14     5    17 1   
    15     5    18 1   
    16     6     7 1   
    17     6    19 1   
    18     6    20 1   
    19     7     8 1   
    20     7    21 1   
    21     7    22 1   
    22     8    23 1   
    23     8    24 1   
    24     8    25 1   
    25     9    26 1   
    26     9    27 1   
    27     9    28 1   
    28    10    29 1   
    29    10    30 1   
    30    10    31 1   
@<TRIPOS>SUBSTRUCTURE
     1 F8O         1 TEMP              0 ****  ****    0 ROOT
