@<TRIPOS>MOLECULE
F8P
   42    45     1     0     0
SMALL
No Charge or Current Charge


@<TRIPOS>ATOM
      1 C02         -5.0730     1.0260    -0.1150 ca         1 F8P       0.698900
      2 C04         -2.8040     1.0440    -0.0940 ca         1 F8P       0.649300
      3 C06         -0.4010     1.2300    -0.0860 ca         1 F8P       0.181100
      4 C07          0.7160     2.0760    -0.1150 ca         1 F8P      -0.152000
      5 C08          2.0130     1.5370    -0.0850 ca         1 F8P      -0.066000
      6 C09          2.1980     0.1410    -0.0260 ca         1 F8P      -0.139300
      7 C10          3.6100    -0.4650     0.0070 c6         1 F8P      -0.006400
      8 C11          4.3980    -0.0210     1.2720 c6         1 F8P      -0.070400
      9 C12          5.8090    -0.6640     1.3180 c6         1 F8P      -0.125400
     10 C13          6.6020    -0.3790     0.0200 c6         1 F8P       0.178000
     11 C16          5.8240    -0.7710    -1.2590 c6         1 F8P      -0.125400
     12 C17          4.4120    -0.1270    -1.2820 c6         1 F8P      -0.070400
     13 C18          1.0690    -0.7040     0.0020 ca         1 F8P      -0.024000
     14 C19         -0.2330    -0.1590    -0.0280 ca         1 F8P      -0.223600
     15 C20         -1.4420    -1.0280     0.0010 c          1 F8P       0.621300
     16 C22         -2.7600    -0.3510    -0.0360 ca         1 F8P      -0.381600
     17 C23         -3.9620    -1.0800    -0.0090 ca         1 F8P       0.050000
     18 C24         -5.1650    -0.3580    -0.0420 ca         1 F8P      -0.294600
     19 C25         -6.4810    -1.0560     0.0010 c          1 F8P       0.735600
     20 F14          7.8180    -1.0830     0.0560 f          1 F8P      -0.130000
     21 F15          6.9390     0.9860    -0.0340 f          1 F8P      -0.130000
     22 N01         -6.0940     1.8660    -0.1700 nv         1 F8P      -1.068900
     23 N03         -3.9580     1.7280    -0.1320 nb         1 F8P      -0.844000
     24 O05         -1.6530     1.7870    -0.1160 os         1 F8P      -0.341400
     25 O21         -1.3590    -2.2490     0.0540 o          1 F8P      -0.570100
     26 O26         -7.4360    -0.4800     0.5030 o          1 F8P      -0.716500
     27 O27         -6.5330    -2.2000    -0.4220 o          1 F8P      -0.716500
     28 H1           0.5770     3.1530    -0.1600 ha         1 F8P       0.129000
     29 H2           2.8690     2.2070    -0.1080 ha         1 F8P       0.107000
     30 H3           3.5130    -1.5590     0.0510 hc         1 F8P       0.052700
     31 H4           4.4940     1.0730     1.2950 hc         1 F8P       0.054200
     32 H5           3.8360    -0.3000     2.1750 hc         1 F8P       0.054200
     33 H6           6.3650    -0.2900     2.1890 hc         1 F8P       0.063200
     34 H7           5.7120    -1.7500     1.4560 hc         1 F8P       0.063200
     35 H8           6.3890    -0.4690    -2.1510 hc         1 F8P       0.063200
     36 H9           5.7270    -1.8650    -1.3070 hc         1 F8P       0.063200
     37 H10          3.8610    -0.4800    -2.1650 hc         1 F8P       0.054200
     38 H11          4.5090     0.9620    -1.3940 hc         1 F8P       0.054200
     39 H12          1.2030    -1.7830     0.0480 ha         1 F8P       0.130000
     40 H13         -3.9640    -2.1690     0.0460 ha         1 F8P       0.155000
     41 H14         -6.9550     1.4640     0.1930 hn         1 F8P       0.518500
     42 H15         -5.8640     2.7980     0.1430 hn         1 F8P       0.518500
@<TRIPOS>BOND
     1     1    18 ar  
     2     1    22 1   
     3     1    23 ar  
     4     2    16 ar  
     5     2    23 ar  
     6     2    24 1   
     7     3     4 ar  
     8     3    14 ar  
     9     3    24 1   
    10     4     5 ar  
    11     4    28 1   
    12     5     6 ar  
    13     5    29 1   
    14     6     7 1   
    15     6    13 ar  
    16     7     8 1   
    17     7    12 1   
    18     7    30 1   
    19     8     9 1   
    20     8    31 1   
    21     8    32 1   
    22     9    10 1   
    23     9    33 1   
    24     9    34 1   
    25    10    11 1   
    26    10    20 1   
    27    10    21 1   
    28    11    12 1   
    29    11    35 1   
    30    11    36 1   
    31    12    37 1   
    32    12    38 1   
    33    13    14 ar  
    34    13    39 1   
    35    14    15 1   
    36    15    16 1   
    37    15    25 2   
    38    16    17 ar  
    39    17    18 ar  
    40    17    40 1   
    41    18    19 1   
    42    19    26 1   
    43    19    27 1   
    44    22    41 1   
    45    22    42 1   
@<TRIPOS>SUBSTRUCTURE
     1 F8P         1 TEMP              0 ****  ****    0 ROOT
