@<TRIPOS>MOLECULE
F8P
   42    45     1     0     0
SMALL
bcc


@<TRIPOS>ATOM
      1 C02         -4.9870     1.1210    -0.0380 ca         1 F8P       0.764200
      2 C04         -2.7100     1.0430    -0.0330 ca         1 F8P       0.714600
      3 C06         -0.3740     1.1920    -0.0330 ca         1 F8P       0.181100
      4 C07          0.7340     2.0340    -0.0500 ca         1 F8P      -0.170000
      5 C08          1.9970     1.4820    -0.0360 ca         1 F8P      -0.084000
      6 C09          2.1950     0.0940    -0.0040 ca         1 F8P      -0.139300
      7 C10          3.5820    -0.4930     0.0070 c6         1 F8P      -0.006400
      8 C11          4.3690    -0.0640     1.2510 c6         1 F8P      -0.070400
      9 C12          5.7740    -0.6600     1.2610 c6         1 F8P      -0.125400
     10 C13          6.5130    -0.3340    -0.0140 c6         1 F8P       0.420600
     11 C16          5.7600    -0.7360    -1.2590 c6         1 F8P      -0.125400
     12 C17          4.3550    -0.1390    -1.2680 c6         1 F8P      -0.070400
     13 C18          1.0780    -0.7180     0.0120 ca         1 F8P      -0.042000
     14 C19         -0.2170    -0.1900    -0.0010 ca         1 F8P      -0.223600
     15 C20         -1.4000    -1.0630     0.0170 c          1 F8P       0.621300
     16 C22         -2.6600    -0.3510    -0.0020 ca         1 F8P      -0.446900
     17 C23         -3.9050    -1.0020     0.0090 ca         1 F8P       0.032000
     18 C24         -5.0860    -0.3120    -0.0090 ca         1 F8P      -0.359900
     19 C25         -6.4070    -1.0650     0.0020 c          1 F8P       0.946200
     20 F14          7.7510    -0.9240    -0.0030 f          1 F8P      -0.251300
     21 F15          6.7670     1.0180    -0.0580 f          1 F8P      -0.251300
     22 N01         -6.0770     1.8780    -0.0560 nv         1 F8P      -0.958500
     23 N03         -3.8070     1.7560    -0.0500 nb         1 F8P      -0.844000
     24 O05         -1.5910     1.7870    -0.0480 os         1 F8P      -0.341400
     25 O21         -1.3130    -2.2840     0.0440 o          1 F8P      -0.570100
     26 O26         -7.4580    -0.3810    -0.0140 o          1 F8P      -0.821800
     27 O27         -6.3400    -2.3030     0.0270 o          1 F8P      -0.821800
     28 H1           0.5980     3.1070    -0.0750 ha         1 F8P       0.147000
     29 H2           2.8490     2.1520    -0.0510 ha         1 F8P       0.125000
     30 H3           3.4790    -1.5840     0.0410 hc         1 F8P       0.052700
     31 H4           4.4280     1.0270     1.3010 hc         1 F8P       0.054200
     32 H5           3.8420    -0.3860     2.1510 hc         1 F8P       0.054200
     33 H6           6.3400    -0.2960     2.1230 hc         1 F8P       0.063200
     34 H7           5.7120    -1.7470     1.3520 hc         1 F8P       0.063200
     35 H8           6.3150    -0.4250    -2.1470 hc         1 F8P       0.063200
     36 H9           5.6970    -1.8270    -1.2840 hc         1 F8P       0.063200
     37 H10          3.8170    -0.5110    -2.1420 hc         1 F8P       0.054200
     38 H11          4.4130     0.9470    -1.3810 hc         1 F8P       0.054200
     39 H12          1.1940    -1.7940     0.0360 ha         1 F8P       0.148000
     40 H13         -3.9310    -2.0840     0.0310 ha         1 F8P       0.173000
     41 H14         -6.9700     1.3950    -0.0460 hn         1 F8P       0.463300
     42 H15         -6.0010     2.8800    -0.0710 hn         1 F8P       0.463300
@<TRIPOS>BOND
     1     1    18 ar  
     2     1    22 1   
     3     1    23 ar  
     4     2    16 ar  
     5     2    23 ar  
     6     2    24 1   
     7     3     4 ar  
     8     3    14 ar  
     9     3    24 1   
    10     4     5 ar  
    11     4    28 1   
    12     5     6 ar  
    13     5    29 1   
    14     6     7 1   
    15     6    13 ar  
    16     7     8 1   
    17     7    12 1   
    18     7    30 1   
    19     8     9 1   
    20     8    31 1   
    21     8    32 1   
    22     9    10 1   
    23     9    33 1   
    24     9    34 1   
    25    10    11 1   
    26    10    20 1   
    27    10    21 1   
    28    11    12 1   
    29    11    35 1   
    30    11    36 1   
    31    12    37 1   
    32    12    38 1   
    33    13    14 ar  
    34    13    39 1   
    35    14    15 1   
    36    15    16 1   
    37    15    25 2   
    38    16    17 ar  
    39    17    18 ar  
    40    17    40 1   
    41    18    19 1   
    42    19    26 1   
    43    19    27 1   
    44    22    41 1   
    45    22    42 1   
@<TRIPOS>SUBSTRUCTURE
     1 F8P         1 TEMP              0 ****  ****    0 ROOT
