@<TRIPOS>MOLECULE
F8Q
   54    56     1     0     0
SMALL
bcc


@<TRIPOS>ATOM
      1 F17         -2.8020     2.3100    -0.8380 f          1 F8Q      -0.117900
      2 C12         -1.9770     1.5140    -0.1460 ca         1 F8Q       0.158900
      3 C7          -2.4620     0.3330     0.3980 cp         1 F8Q      -0.065000
      4 C6          -3.8730    -0.0790     0.2600 cp         1 F8Q      -0.014000
      5 C5          -4.1620    -1.3720    -0.1590 ca         1 F8Q      -0.152000
      6 C4          -5.4820    -1.8110    -0.2740 ca         1 F8Q       0.143100
      7 O13         -5.6450    -3.0800    -0.6940 os         1 F8Q      -0.320900
      8 C14         -6.9600    -3.5760    -0.8500 c3         1 F8Q       0.123700
      9 C3          -6.5260    -0.9430     0.0330 ca         1 F8Q      -0.200000
     10 C2          -6.2300     0.3480     0.4560 ca         1 F8Q      -0.087000
     11 C1          -4.9240     0.7890     0.5710 ca         1 F8Q      -0.141000
     12 C11         -0.6500     1.9080    -0.0510 ca         1 F8Q       0.015100
     13 O15         -0.2230     3.0590    -0.6280 os         1 F8Q      -0.328900
     14 C16         -0.5270     4.2480     0.1020 c3         1 F8Q       0.113700
     15 C10          0.2650     1.0810     0.6170 ca         1 F8Q       0.151600
     16 C9          -0.2050    -0.1050     1.1840 ca         1 F8Q      -0.178000
     17 C8          -1.5340    -0.4660     1.0640 ca         1 F8Q      -0.073000
     18 N18          1.5810     1.4960     0.7150 nu         1 F8Q      -0.629000
     19 C19          2.7190     0.7150     0.7210 ca         1 F8Q       0.245600
     20 C24          2.7380    -0.6290     0.3310 ca         1 F8Q      -0.193000
     21 C23          3.9240    -1.3410     0.3460 ca         1 F8Q      -0.056000
     22 C22          5.1250    -0.7470     0.7210 ca         1 F8Q      -0.248300
     23 C21          5.1060     0.5950     1.0950 ca         1 F8Q      -0.056000
     24 C20          3.9260     1.3140     1.1040 ca         1 F8Q      -0.193000
     25 C25          6.3960    -1.5320     0.6990 c3         1 F8Q       0.203100
     26 N26          6.9190    -1.7190    -0.7010 nx         1 F8Q      -0.691400
     27 C28          7.2900    -0.4350    -1.3430 c3         1 F8Q       0.101600
     28 C27          8.0520    -2.6750    -0.7200 c3         1 F8Q       0.101600
     29 H1          -3.3590    -2.0540    -0.4130 ha         1 F8Q       0.142000
     30 H2          -6.8630    -4.5980    -1.2100 h1         1 F8Q       0.045033
     31 H3          -7.5080    -3.5880     0.0950 h1         1 F8Q       0.045033
     32 H4          -7.5310    -2.9990    -1.5820 h1         1 F8Q       0.045033
     33 H5          -7.5600    -1.2480    -0.0470 ha         1 F8Q       0.142000
     34 H6          -7.0450     1.0170     0.7040 ha         1 F8Q       0.138000
     35 H7          -4.7240     1.7900     0.9270 ha         1 F8Q       0.138000
     36 H8          -1.6010     4.4340     0.1480 h1         1 F8Q       0.045700
     37 H9          -0.1340     4.2020     1.1200 h1         1 F8Q       0.045700
     38 H10         -0.0480     5.0720    -0.4230 h1         1 F8Q       0.045700
     39 H11          0.4620    -0.7390     1.7510 ha         1 F8Q       0.144000
     40 H12         -1.8690    -1.3860     1.5260 ha         1 F8Q       0.152000
     41 H13          1.7410     2.4850     0.6140 hn         1 F8Q       0.457800
     42 H14          1.8370    -1.1230    -0.0030 ha         1 F8Q       0.159000
     43 H15          3.9050    -2.3840     0.0490 ha         1 F8Q       0.131000
     44 H16          6.0240     1.0860     1.3930 ha         1 F8Q       0.131000
     45 H17          3.9350     2.3520     1.4110 ha         1 F8Q       0.159000
     46 H18          7.1930    -1.0450     1.2630 hx         1 F8Q       0.094200
     47 H19          6.2540    -2.5340     1.1030 hx         1 F8Q       0.094200
     48 H20          6.1670    -2.1330    -1.2560 hn         1 F8Q       0.444800
     49 H21          8.1000     0.0140    -0.7750 hx         1 F8Q       0.097867
     50 H22          7.6130    -0.6330    -2.3610 hx         1 F8Q       0.097867
     51 H23          6.4300     0.2260    -1.3530 hx         1 F8Q       0.097867
     52 H24          7.7250    -3.6180    -0.2940 hx         1 F8Q       0.097867
     53 H25          8.3720    -2.8230    -1.7460 hx         1 F8Q       0.097867
     54 H26          8.8670    -2.2620    -0.1330 hx         1 F8Q       0.097867
@<TRIPOS>BOND
     1     1     2 1   
     2     2     3 ar  
     3     2    12 ar  
     4     3     4 1   
     5     3    17 ar  
     6     4     5 ar  
     7     4    11 ar  
     8     5     6 ar  
     9     5    29 1   
    10     6     7 1   
    11     6     9 ar  
    12     7     8 1   
    13     8    30 1   
    14     8    31 1   
    15     8    32 1   
    16     9    10 ar  
    17     9    33 1   
    18    10    11 ar  
    19    10    34 1   
    20    11    35 1   
    21    12    13 1   
    22    12    15 ar  
    23    13    14 1   
    24    14    36 1   
    25    14    37 1   
    26    14    38 1   
    27    15    16 ar  
    28    15    18 1   
    29    16    17 ar  
    30    16    39 1   
    31    17    40 1   
    32    18    19 1   
    33    18    41 1   
    34    19    20 ar  
    35    19    24 ar  
    36    20    21 ar  
    37    20    42 1   
    38    21    22 ar  
    39    21    43 1   
    40    22    23 ar  
    41    22    25 1   
    42    23    24 ar  
    43    23    44 1   
    44    24    45 1   
    45    25    26 1   
    46    25    46 1   
    47    25    47 1   
    48    26    27 1   
    49    26    28 1   
    50    26    48 1   
    51    27    49 1   
    52    27    50 1   
    53    27    51 1   
    54    28    52 1   
    55    28    53 1   
    56    28    54 1   
@<TRIPOS>SUBSTRUCTURE
     1 F8Q         1 TEMP              0 ****  ****    0 ROOT
