@<TRIPOS>MOLECULE
F8Q
   54    56     1     0     0
SMALL
No Charge or Current Charge


@<TRIPOS>ATOM
      1 F17         -2.9700     2.4740    -0.3610 f          1 F8Q      -0.153000
      2 C12         -2.0530     1.5860     0.0920 ca         1 F8Q       0.194000
      3 C7          -2.5090     0.2980     0.4870 cp         1 F8Q      -0.065000
      4 C6          -3.9560    -0.0810     0.4500 cp         1 F8Q      -0.014000
      5 C5          -4.3630    -1.3180    -0.1080 ca         1 F8Q      -0.134000
      6 C4          -5.7140    -1.6980    -0.1420 ca         1 F8Q       0.143100
      7 O13         -6.0270    -2.9160    -0.7100 os         1 F8Q      -0.344100
      8 C14         -7.3810    -3.3990    -0.7950 c3         1 F8Q       0.146900
      9 C3          -6.6940    -0.8360     0.3970 ca         1 F8Q      -0.182000
     10 C2          -6.3110     0.3910     0.9640 ca         1 F8Q      -0.069000
     11 C1          -4.9570     0.7620     0.9920 ca         1 F8Q      -0.123000
     12 C11         -0.6680     1.9240     0.1400 ca         1 F8Q       0.015100
     13 O15         -0.1450     3.1730    -0.2140 os         1 F8Q      -0.352100
     14 C16         -0.9310     4.2980    -0.6500 c3         1 F8Q       0.136900
     15 C10          0.2590     0.9420     0.5710 ca         1 F8Q       0.290000
     16 C9          -0.1920    -0.3240     0.9770 ca         1 F8Q      -0.160000
     17 C8          -1.5540    -0.6450     0.9290 ca         1 F8Q      -0.055000
     18 N18          1.6210     1.2670     0.6310 nu         1 F8Q      -0.961000
     19 C19          2.8030     0.5260     0.6370 ca         1 F8Q       0.384000
     20 C24          2.8760    -0.7510     0.0560 ca         1 F8Q      -0.175000
     21 C23          4.0850    -1.4660     0.0600 ca         1 F8Q      -0.038000
     22 C22          5.2350    -0.9000     0.6380 ca         1 F8Q      -0.248300
     23 C21          5.1690     0.3850     1.2050 ca         1 F8Q      -0.038000
     24 C20          3.9560     1.0950     1.1960 ca         1 F8Q      -0.175000
     25 C25          6.5420    -1.6650     0.6370 c3         1 F8Q       0.174900
     26 N26          7.2790    -1.5460    -0.6840 nx         1 F8Q      -0.662000
     27 C28          7.8540    -0.1420    -0.9070 c3         1 F8Q       0.073400
     28 C27          8.3450    -2.6360    -0.8490 c3         1 F8Q       0.073400
     29 H1          -3.6190    -1.9870    -0.5310 ha         1 F8Q       0.124000
     30 H2          -7.4040    -4.3830    -1.2800 h1         1 F8Q       0.045033
     31 H3          -7.8220    -3.5030     0.2050 h1         1 F8Q       0.045033
     32 H4          -8.0030    -2.7150    -1.3850 h1         1 F8Q       0.045033
     33 H5          -7.7470    -1.1000     0.3870 ha         1 F8Q       0.124000
     34 H6          -7.0640     1.0540     1.3850 ha         1 F8Q       0.120000
     35 H7          -4.6790     1.7090     1.4480 ha         1 F8Q       0.120000
     36 H8          -1.4660     4.0670    -1.5800 h1         1 F8Q       0.045700
     37 H9          -1.6560     4.5920     0.1200 h1         1 F8Q       0.045700
     38 H10         -0.2800     5.1600    -0.8440 h1         1 F8Q       0.045700
     39 H11          0.5100    -1.0620     1.3530 ha         1 F8Q       0.126000
     40 H12         -1.8790    -1.6310     1.2540 ha         1 F8Q       0.134000
     41 H13          1.7730     2.2760     0.5890 hn         1 F8Q       0.513000
     42 H14          2.0030    -1.1850    -0.4190 ha         1 F8Q       0.141000
     43 H15          4.1270    -2.4560    -0.3920 ha         1 F8Q       0.113000
     44 H16          6.0550     0.8360     1.6500 ha         1 F8Q       0.113000
     45 H17          3.9130     2.0870     1.6360 ha         1 F8Q       0.141000
     46 H18          7.2000    -1.3100     1.4340 hx         1 F8Q       0.094200
     47 H19          6.3430    -2.7240     0.8230 hx         1 F8Q       0.094200
     48 H20          6.5600    -1.7040    -1.4280 hn         1 F8Q       0.500000
     49 H21          8.6040     0.0710    -0.1410 hx         1 F8Q       0.097867
     50 H22          8.3190    -0.0840    -1.8940 hx         1 F8Q       0.097867
     51 H23          7.0520     0.5970    -0.8410 hx         1 F8Q       0.097867
     52 H24          7.8860    -3.6230    -0.7460 hx         1 F8Q       0.097867
     53 H25          8.8080    -2.5540    -1.8360 hx         1 F8Q       0.097867
     54 H26          9.1130    -2.5140    -0.0810 hx         1 F8Q       0.097867
@<TRIPOS>BOND
     1     1     2 1   
     2     2     3 ar  
     3     2    12 ar  
     4     3     4 1   
     5     3    17 ar  
     6     4     5 ar  
     7     4    11 ar  
     8     5     6 ar  
     9     5    29 1   
    10     6     7 1   
    11     6     9 ar  
    12     7     8 1   
    13     8    30 1   
    14     8    31 1   
    15     8    32 1   
    16     9    10 ar  
    17     9    33 1   
    18    10    11 ar  
    19    10    34 1   
    20    11    35 1   
    21    12    13 1   
    22    12    15 ar  
    23    13    14 1   
    24    14    36 1   
    25    14    37 1   
    26    14    38 1   
    27    15    16 ar  
    28    15    18 1   
    29    16    17 ar  
    30    16    39 1   
    31    17    40 1   
    32    18    19 1   
    33    18    41 1   
    34    19    20 ar  
    35    19    24 ar  
    36    20    21 ar  
    37    20    42 1   
    38    21    22 ar  
    39    21    43 1   
    40    22    23 ar  
    41    22    25 1   
    42    23    24 ar  
    43    23    44 1   
    44    24    45 1   
    45    25    26 1   
    46    25    46 1   
    47    25    47 1   
    48    26    27 1   
    49    26    28 1   
    50    26    48 1   
    51    27    49 1   
    52    27    50 1   
    53    27    51 1   
    54    28    52 1   
    55    28    53 1   
    56    28    54 1   
@<TRIPOS>SUBSTRUCTURE
     1 F8Q         1 TEMP              0 ****  ****    0 ROOT
