@<TRIPOS>MOLECULE
F8S
   42    45     1     0     0
SMALL
bcc


@<TRIPOS>ATOM
      1 C02         -5.2610     1.0860    -0.0670 ca         1 F8S       0.765200
      2 C04         -2.9840     1.0420    -0.0550 ca         1 F8S       0.714600
      3 C06         -0.6500     1.2280    -0.0540 ca         1 F8S       0.185100
      4 C07          0.4440     2.0870    -0.0870 ca         1 F8S      -0.169000
      5 C08          1.7160     1.5560    -0.0590 ca         1 F8S      -0.083000
      6 C09          1.9330     0.1730     0.0040 ca         1 F8S      -0.144300
      7 C10          3.3290    -0.3950     0.0360 c6         1 F8S      -0.012400
      8 C11          4.0790    -0.0690    -1.2620 c6         1 F8S      -0.054900
      9 C12          5.4550    -0.7180    -1.3320 c6         1 F8S      -0.184100
     10 C16          5.4620    -0.5510     1.4230 c6         1 F8S      -0.184100
     11 C17          4.0840     0.0830     1.2830 c6         1 F8S      -0.054900
     12 C18          0.8300    -0.6570     0.0350 ca         1 F8S      -0.040000
     13 C19         -0.4720    -0.1500     0.0070 ca         1 F8S      -0.224600
     14 C20         -1.6420    -1.0420     0.0390 c          1 F8S       0.622300
     15 C22         -2.9120    -0.3500     0.0030 ca         1 F8S      -0.446900
     16 C23         -4.1470    -1.0190     0.0220 ca         1 F8S       0.031000
     17 C24         -5.3380    -0.3480    -0.0120 ca         1 F8S      -0.356900
     18 C25         -6.6460    -1.1210     0.0060 c          1 F8S       0.944200
     19 N01         -6.3630     1.8270    -0.0970 nv         1 F8S      -0.957500
     20 N03         -4.0910     1.7380    -0.0880 nb         1 F8S      -0.843000
     21 O05         -1.8750     1.8030    -0.0840 os         1 F8S      -0.340400
     22 O21         -1.5350    -2.2600     0.0910 o          1 F8S      -0.569100
     23 O26         -6.5630    -2.3570     0.0650 o          1 F8S      -0.821300
     24 O27         -7.7090    -0.4550    -0.0400 o          1 F8S      -0.821300
     25 S13          6.4900    -0.1650     0.0150 s6         1 F8S       0.994000
     26 H1           0.2920     3.1580    -0.1340 ha         1 F8S       0.149000
     27 H2           2.5580     2.2380    -0.0850 ha         1 F8S       0.128000
     28 H3           3.2400    -1.4850     0.1000 hc         1 F8S       0.055700
     29 H4           3.5030    -0.4350    -2.1140 hc         1 F8S       0.066450
     30 H5           5.3950    -1.8060    -1.2610 h1         1 F8S       0.100200
     31 H6           5.9940    -0.1800     2.3020 h1         1 F8S       0.100200
     32 H7           5.4060    -1.6390     1.4880 h1         1 F8S       0.100200
     33 H8           4.1820     1.1710     1.2810 hc         1 F8S       0.066450
     34 H9           3.5120    -0.1790     2.1750 hc         1 F8S       0.066450
     35 H10          0.9630    -1.7310     0.0820 ha         1 F8S       0.148000
     36 H11         -4.1550    -2.1010     0.0640 ha         1 F8S       0.173000
     37 H12         -7.2490     1.3310    -0.0900 hn         1 F8S       0.463300
     38 H13         -6.3010     2.8290    -0.1380 hn         1 F8S       0.463300
     39 H15          4.1750     1.0120    -1.3920 hc         1 F8S       0.066450
     40 H16          5.9830    -0.4580    -2.2510 h1         1 F8S       0.100200
     41 O14          6.6240     1.2920    -0.0760 o          1 F8S      -0.598300
     42 O15          7.7140    -0.9660     0.0640 o          1 F8S      -0.598300
@<TRIPOS>BOND
     1     1    17 ar  
     2     1    19 1   
     3     1    20 ar  
     4     2    15 ar  
     5     2    20 ar  
     6     2    21 1   
     7     3     4 ar  
     8     3    13 ar  
     9     3    21 1   
    10     4     5 ar  
    11     4    26 1   
    12     5     6 ar  
    13     5    27 1   
    14     6     7 1   
    15     6    12 ar  
    16     7     8 1   
    17     7    11 1   
    18     7    28 1   
    19     8     9 1   
    20     8    29 1   
    21     8    39 1   
    22     9    25 1   
    23     9    30 1   
    24     9    40 1   
    25    10    11 1   
    26    10    25 1   
    27    10    31 1   
    28    10    32 1   
    29    11    33 1   
    30    11    34 1   
    31    12    13 ar  
    32    12    35 1   
    33    13    14 1   
    34    14    15 1   
    35    14    22 2   
    36    15    16 ar  
    37    16    17 ar  
    38    16    36 1   
    39    17    18 1   
    40    18    23 1   
    41    18    24 1   
    42    19    37 1   
    43    19    38 1   
    44    25    41 2   
    45    25    42 2   
@<TRIPOS>SUBSTRUCTURE
     1 F8S         1 TEMP              0 ****  ****    0 ROOT
