@<TRIPOS>MOLECULE
F8S
   42    45     1     0     0
SMALL
No Charge or Current Charge


@<TRIPOS>ATOM
      1 C02         -5.3510     0.9940     0.0130 ca         1 F8S       0.699900
      2 C04         -3.0820     1.0460    -0.0040 ca         1 F8S       0.649300
      3 C06         -0.6830     1.2700    -0.0190 ca         1 F8S       0.185100
      4 C07          0.4210     2.1340    -0.0490 ca         1 F8S      -0.151000
      5 C08          1.7250     1.6150    -0.0370 ca         1 F8S      -0.065000
      6 C09          1.9330     0.2210     0.0050 ca         1 F8S      -0.144300
      7 C10          3.3550    -0.3620     0.0190 c6         1 F8S      -0.012400
      8 C11          4.1250     0.0010    -1.2830 c6         1 F8S      -0.054900
      9 C12          5.5150    -0.6870    -1.3630 c6         1 F8S      -0.294900
     10 C16          5.5230    -0.6030     1.4040 c6         1 F8S      -0.294900
     11 C17          4.1330     0.0800     1.2910 c6         1 F8S      -0.054900
     12 C18          0.8180    -0.6410     0.0350 ca         1 F8S      -0.022000
     13 C19         -0.4930    -0.1170     0.0230 ca         1 F8S      -0.224600
     14 C20         -1.6880    -1.0060     0.0530 c          1 F8S       0.622300
     15 C22         -3.0160    -0.3490     0.0380 ca         1 F8S      -0.381600
     16 C23         -4.2070    -1.0970     0.0610 ca         1 F8S       0.049000
     17 C24         -5.4210    -0.3940     0.0390 ca         1 F8S      -0.291600
     18 C25         -6.7260    -1.1140     0.0430 c          1 F8S       0.733600
     19 N01         -6.3850     1.8180     0.0050 nv         1 F8S      -1.067900
     20 N03         -4.2480     1.7130    -0.0180 nb         1 F8S      -0.843000
     21 O05         -1.9430     1.8070    -0.0320 os         1 F8S      -0.340400
     22 O21         -1.5850    -2.2250     0.0880 o          1 F8S      -0.569100
     23 O26         -6.7610    -2.2260     0.5460 o          1 F8S      -0.716000
     24 O27         -7.6890    -0.5910    -0.5000 o          1 F8S      -0.716000
     25 S13          6.6170    -0.2280     0.0050 s6         1 F8S       1.074000
     26 H1           0.2630     3.2090    -0.0820 ha         1 F8S       0.131000
     27 H2           2.5710     2.2990    -0.0610 ha         1 F8S       0.110000
     28 H3           3.2720    -1.4580     0.0520 hc         1 F8S       0.055700
     29 H4           3.5250    -0.3000    -2.1530 hc         1 F8S       0.066450
     30 H5           5.4170    -1.7790    -1.3180 h1         1 F8S       0.100200
     31 H6           6.0580    -0.2710     2.3020 h1         1 F8S       0.100200
     32 H7           5.4250    -1.6950     1.4270 h1         1 F8S       0.100200
     33 H8           4.2530     1.1730     1.3020 hc         1 F8S       0.066450
     34 H9           3.5370    -0.1680     2.1810 hc         1 F8S       0.066450
     35 H10          0.9690    -1.7190     0.0670 ha         1 F8S       0.130000
     36 H11         -4.1910    -2.1870     0.0850 ha         1 F8S       0.155000
     37 H12         -7.2400     1.3770    -0.3300 hn         1 F8S       0.518500
     38 H13         -6.1700     2.7300    -0.3740 hn         1 F8S       0.518500
     39 H15          4.2450     1.0910    -1.3620 hc         1 F8S       0.066450
     40 H16          6.0440    -0.4110    -2.2830 h1         1 F8S       0.100200
     41 O14          6.8510     1.2210    -0.0400 o          1 F8S      -0.527500
     42 O15          7.7550    -1.1550     0.0300 o          1 F8S      -0.527500
@<TRIPOS>BOND
     1     1    17 ar  
     2     1    19 1   
     3     1    20 ar  
     4     2    15 ar  
     5     2    20 ar  
     6     2    21 1   
     7     3     4 ar  
     8     3    13 ar  
     9     3    21 1   
    10     4     5 ar  
    11     4    26 1   
    12     5     6 ar  
    13     5    27 1   
    14     6     7 1   
    15     6    12 ar  
    16     7     8 1   
    17     7    11 1   
    18     7    28 1   
    19     8     9 1   
    20     8    29 1   
    21     8    39 1   
    22     9    25 1   
    23     9    30 1   
    24     9    40 1   
    25    10    11 1   
    26    10    25 1   
    27    10    31 1   
    28    10    32 1   
    29    11    33 1   
    30    11    34 1   
    31    12    13 ar  
    32    12    35 1   
    33    13    14 1   
    34    14    15 1   
    35    14    22 2   
    36    15    16 ar  
    37    16    17 ar  
    38    16    36 1   
    39    17    18 1   
    40    18    23 1   
    41    18    24 1   
    42    19    37 1   
    43    19    38 1   
    44    25    41 2   
    45    25    42 2   
@<TRIPOS>SUBSTRUCTURE
     1 F8S         1 TEMP              0 ****  ****    0 ROOT
