@<TRIPOS>MOLECULE
F8T
   50    52     1     0     0
SMALL
abcg2


@<TRIPOS>ATOM
      1 C1           5.1090     1.5510    -0.0400 ca         1 F8T      -0.136000
      2 C2           6.4530     1.2260    -0.0290 ca         1 F8T      -0.069000
      3 C3           6.8790    -0.0970    -0.0030 ca         1 F8T      -0.185000
      4 C4           5.9260    -1.1120     0.0120 ca         1 F8T       0.145100
      5 C5           4.5690    -0.7890    -0.0030 ca         1 F8T      -0.138000
      6 C6           4.1460     0.5360    -0.0260 cp         1 F8T      -0.011000
      7 C7           2.7070     0.8600    -0.0360 cp         1 F8T      -0.032000
      8 C8           2.2170     1.9620    -0.7390 ca         1 F8T      -0.068500
      9 C9           0.8680     2.2600    -0.7650 ca         1 F8T      -0.149500
     10 C10         -0.0540     1.4710    -0.0700 ca         1 F8T       0.278000
     11 C11          0.4290     0.3830     0.6600 ca         1 F8T      -0.149500
     12 C12          1.7810     0.0840     0.6620 ca         1 F8T      -0.068500
     13 O13          6.2180    -2.4270     0.0290 os         1 F8T      -0.344100
     14 C14          7.5760    -2.8170     0.0240 c3         1 F8T       0.146900
     15 N15         -1.3890     1.8410    -0.0900 nu         1 F8T      -0.970000
     16 C16         -2.5070     1.0570     0.0940 ca         1 F8T       0.387000
     17 C17         -3.7120     1.6850     0.4390 ca         1 F8T      -0.179000
     18 C18         -4.8660     0.9480     0.6170 ca         1 F8T      -0.035500
     19 C19         -4.8670    -0.4370     0.4610 ca         1 F8T      -0.251300
     20 C20         -3.6740    -1.0570     0.1060 ca         1 F8T      -0.035500
     21 C21         -2.5100    -0.3310    -0.0850 ca         1 F8T      -0.179000
     22 C22         -6.1170    -1.2250     0.6790 c3         1 F8T       0.175900
     23 N23         -7.0560    -1.1630    -0.4970 nx         1 F8T      -0.662000
     24 C24         -6.4640    -1.7260    -1.7340 c3         1 F8T       0.073400
     25 C25         -8.3460    -1.8200    -0.1700 c3         1 F8T       0.073400
     26 H1           4.8070     2.5910    -0.0370 ha         1 F8T       0.116000
     27 H2           7.1950     2.0150    -0.0330 ha         1 F8T       0.118000
     28 H3           7.9400    -0.3090     0.0060 ha         1 F8T       0.124000
     29 H4           3.8450    -1.5950    -0.0200 ha         1 F8T       0.124000
     30 H5           2.8970     2.5870    -1.3050 ha         1 F8T       0.126500
     31 H6           0.5200     3.1120    -1.3370 ha         1 F8T       0.117500
     32 H7          -0.2380    -0.2200     1.2610 ha         1 F8T       0.117500
     33 H8           2.1190    -0.7580     1.2530 ha         1 F8T       0.126500
     34 H9           7.5870    -3.9040     0.0310 h1         1 F8T       0.044033
     35 H10          8.0990    -2.4660    -0.8690 h1         1 F8T       0.044033
     36 H11          8.1080    -2.4550     0.9080 h1         1 F8T       0.044033
     37 H12         -1.5660     2.8180    -0.2660 hn         1 F8T       0.504000
     38 H13         -3.7360     2.7580     0.5820 ha         1 F8T       0.140500
     39 H14         -5.7760     1.4630     0.9030 ha         1 F8T       0.112000
     40 H15         -3.6430    -2.1310    -0.0300 ha         1 F8T       0.112000
     41 H16         -1.6150    -0.8520    -0.3930 ha         1 F8T       0.140500
     42 H17         -5.9120    -2.2810     0.8510 hx         1 F8T       0.093200
     43 H18         -6.6830    -0.8450     1.5290 hx         1 F8T       0.093200
     44 H19         -7.2590    -0.1790    -0.6760 hn         1 F8T       0.498000
     45 H20         -5.5780    -1.1610    -2.0030 hx         1 F8T       0.097367
     46 H21         -6.2050    -2.7670    -1.5590 hx         1 F8T       0.097367
     47 H22         -7.1970    -1.6540    -2.5310 hx         1 F8T       0.097367
     48 H23         -8.7770    -1.3340     0.7000 hx         1 F8T       0.097367
     49 H24         -9.0150    -1.7210    -1.0190 hx         1 F8T       0.097367
     50 H25         -8.1630    -2.8690     0.0400 hx         1 F8T       0.097367
@<TRIPOS>BOND
     1     1     2 ar  
     2     1     6 ar  
     3     1    26 1   
     4     2     3 ar  
     5     2    27 1   
     6     3     4 ar  
     7     3    28 1   
     8     4     5 ar  
     9     4    13 1   
    10     5     6 ar  
    11     5    29 1   
    12     6     7 1   
    13     7     8 ar  
    14     7    12 ar  
    15     8     9 ar  
    16     8    30 1   
    17     9    10 ar  
    18     9    31 1   
    19    10    11 ar  
    20    10    15 1   
    21    11    12 ar  
    22    11    32 1   
    23    12    33 1   
    24    13    14 1   
    25    14    34 1   
    26    14    35 1   
    27    14    36 1   
    28    15    16 1   
    29    15    37 1   
    30    16    17 ar  
    31    16    21 ar  
    32    17    18 ar  
    33    17    38 1   
    34    18    19 ar  
    35    18    39 1   
    36    19    20 ar  
    37    19    22 1   
    38    20    21 ar  
    39    20    40 1   
    40    21    41 1   
    41    22    23 1   
    42    22    42 1   
    43    22    43 1   
    44    23    24 1   
    45    23    25 1   
    46    23    44 1   
    47    24    45 1   
    48    24    46 1   
    49    24    47 1   
    50    25    48 1   
    51    25    49 1   
    52    25    50 1   
@<TRIPOS>SUBSTRUCTURE
     1 F8T         1 TEMP              0 ****  ****    0 ROOT
