@<TRIPOS>MOLECULE
F8T
   50    52     1     0     0
SMALL
No Charge or Current Charge


@<TRIPOS>ATOM
      1 C1           5.1880     1.5980    -0.0370 ca         1 F8T      -0.136000
      2 C2           6.5640     1.3150    -0.0260 ca         1 F8T      -0.069000
      3 C3           7.0100    -0.0160    -0.0030 ca         1 F8T      -0.185000
      4 C4           6.0730    -1.0710     0.0090 ca         1 F8T       0.145100
      5 C5           4.7000    -0.7780    -0.0010 ca         1 F8T      -0.138000
      6 C6           4.2260     0.5570    -0.0250 cp         1 F8T      -0.011000
      7 C7           2.7580     0.8580    -0.0360 cp         1 F8T      -0.032000
      8 C8           2.2420     1.9700    -0.7470 ca         1 F8T      -0.068500
      9 C9           0.8630     2.2500    -0.7560 ca         1 F8T      -0.149500
     10 C10         -0.0360     1.4240    -0.0660 ca         1 F8T       0.278000
     11 C11          0.4600     0.3270     0.6590 ca         1 F8T      -0.149500
     12 C12          1.8370     0.0440     0.6710 ca         1 F8T      -0.068500
     13 O13          6.4500    -2.3980     0.0280 os         1 F8T      -0.344100
     14 C14          7.8300    -2.8050     0.0390 c3         1 F8T       0.146900
     15 N15         -1.3960     1.7370    -0.0830 nu         1 F8T      -0.970000
     16 C16         -2.5580     0.9860     0.1100 ca         1 F8T       0.387000
     17 C17         -3.7310     1.6390     0.5160 ca         1 F8T      -0.179000
     18 C18         -4.9200     0.9160     0.7050 ca         1 F8T      -0.035500
     19 C19         -4.9430    -0.4710     0.4740 ca         1 F8T      -0.251300
     20 C20         -3.7730    -1.1270     0.0510 ca         1 F8T      -0.035500
     21 C21         -2.5870    -0.3970    -0.1350 ca         1 F8T      -0.179000
     22 C22         -6.2260    -1.2530     0.6680 c3         1 F8T       0.175900
     23 N23         -7.1520    -1.1490    -0.5300 nx         1 F8T      -0.662000
     24 C24         -6.6180    -1.9140    -1.7470 c3         1 F8T       0.073400
     25 C25         -8.5890    -1.5520    -0.1830 c3         1 F8T       0.073400
     26 H1           4.8670     2.6360    -0.0410 ha         1 F8T       0.116000
     27 H2           7.2850     2.1310    -0.0320 ha         1 F8T       0.118000
     28 H3           8.0790    -0.2070     0.0060 ha         1 F8T       0.124000
     29 H4           3.9940    -1.6040    -0.0060 ha         1 F8T       0.124000
     30 H5           2.9130     2.6150    -1.3090 ha         1 F8T       0.126500
     31 H6           0.4970     3.1070    -1.3140 ha         1 F8T       0.117500
     32 H7          -0.2140    -0.3000     1.2350 ha         1 F8T       0.117500
     33 H8           2.1950    -0.8030     1.2500 ha         1 F8T       0.126500
     34 H9           7.9040    -3.9000     0.0540 h1         1 F8T       0.044033
     35 H10          8.3510    -2.4420    -0.8560 h1         1 F8T       0.044033
     36 H11          8.3440    -2.4180     0.9280 h1         1 F8T       0.044033
     37 H12         -1.5860     2.7200    -0.2790 hn         1 F8T       0.504000
     38 H13         -3.7210     2.7100     0.6970 ha         1 F8T       0.140500
     39 H14         -5.8210     1.4340     1.0290 ha         1 F8T       0.112000
     40 H15         -3.7830    -2.1980    -0.1420 ha         1 F8T       0.112000
     41 H16         -1.6980    -0.9080    -0.4870 ha         1 F8T       0.140500
     42 H17         -6.0120    -2.3100     0.8500 hx         1 F8T       0.093200
     43 H18         -6.7560    -0.8690     1.5440 hx         1 F8T       0.093200
     44 H19         -7.1700    -0.1360    -0.7890 hn         1 F8T       0.498000
     45 H20         -5.6170    -1.5540    -1.9960 hx         1 F8T       0.097367
     46 H21         -6.5700    -2.9800    -1.5150 hx         1 F8T       0.097367
     47 H22         -7.2820    -1.7590    -2.6010 hx         1 F8T       0.097367
     48 H23         -8.9550    -0.9430     0.6470 hx         1 F8T       0.097367
     49 H24         -9.2350    -1.4030    -1.0520 hx         1 F8T       0.097367
     50 H25         -8.6130    -2.6060     0.1060 hx         1 F8T       0.097367
@<TRIPOS>BOND
     1     1     2 ar  
     2     1     6 ar  
     3     1    26 1   
     4     2     3 ar  
     5     2    27 1   
     6     3     4 ar  
     7     3    28 1   
     8     4     5 ar  
     9     4    13 1   
    10     5     6 ar  
    11     5    29 1   
    12     6     7 1   
    13     7     8 ar  
    14     7    12 ar  
    15     8     9 ar  
    16     8    30 1   
    17     9    10 ar  
    18     9    31 1   
    19    10    11 ar  
    20    10    15 1   
    21    11    12 ar  
    22    11    32 1   
    23    12    33 1   
    24    13    14 1   
    25    14    34 1   
    26    14    35 1   
    27    14    36 1   
    28    15    16 1   
    29    15    37 1   
    30    16    17 ar  
    31    16    21 ar  
    32    17    18 ar  
    33    17    38 1   
    34    18    19 ar  
    35    18    39 1   
    36    19    20 ar  
    37    19    22 1   
    38    20    21 ar  
    39    20    40 1   
    40    21    41 1   
    41    22    23 1   
    42    22    42 1   
    43    22    43 1   
    44    23    24 1   
    45    23    25 1   
    46    23    44 1   
    47    24    45 1   
    48    24    46 1   
    49    24    47 1   
    50    25    48 1   
    51    25    49 1   
    52    25    50 1   
@<TRIPOS>SUBSTRUCTURE
     1 F8T         1 TEMP              0 ****  ****    0 ROOT
