@<TRIPOS>MOLECULE
F8U
   22    21     1     0     0
SMALL
abcg2


@<TRIPOS>ATOM
      1 C01         24.8520    49.4160    80.6160 c3         1 F8U      -0.393900
      2 C02         23.3570    49.2320    80.8710 c3         1 F8U       0.220300
      3 C03         22.5200    49.6350    79.6530 c3         1 F8U       0.220300
      4 C04         22.6680    51.1230    79.3350 c3         1 F8U      -0.393900
      5 O06         20.3920    51.1180    78.0400 o          1 F8U      -0.706367
      6 O07         21.8770    53.0670    77.7600 o          1 F8U      -0.706367
      7 O08         22.4670    50.9050    76.7270 o          1 F8U      -0.706367
      8 O09         21.1820    49.3130    79.9400 oh         1 F8U      -0.694000
      9 O10         23.0580    47.8880    81.1560 oh         1 F8U      -0.694000
     10 O12         25.4070    47.7340    82.5430 o          1 F8U      -0.706367
     11 O13         27.2460    49.1000    81.6290 o          1 F8U      -0.706367
     12 O14         25.5170    50.1390    83.0520 o          1 F8U      -0.706367
     13 S05         21.7860    51.6010    77.8320 s6         1 F8U       1.322100
     14 S11         25.8480    49.0800    82.0840 s6         1 F8U       1.322100
     15 H1          25.1880    48.7420    79.8230 h1         1 F8U       0.077200
     16 H2          25.0960    50.4340    80.3150 h1         1 F8U       0.077200
     17 H3          23.0660    49.8890    81.7070 h1         1 F8U       0.035200
     18 H4          22.8900    49.0590    78.7900 h1         1 F8U       0.035200
     19 H5          23.7080    51.4040    79.1710 h1         1 F8U       0.077200
     20 H6          22.2800    51.7290    80.1570 h1         1 F8U       0.077200
     21 H7          20.6340    49.8010    79.3000 ho         1 F8U       0.475500
     22 H8          23.7560    47.5720    81.7580 ho         1 F8U       0.475500
@<TRIPOS>BOND
     1     1     2 1   
     2     1    14 1   
     3     1    15 1   
     4     1    16 1   
     5     2     3 1   
     6     2     9 1   
     7     2    17 1   
     8     3     4 1   
     9     3     8 1   
    10     3    18 1   
    11     4    13 1   
    12     4    19 1   
    13     4    20 1   
    14     5    13 1   
    15     6    13 1   
    16     7    13 1   
    17     8    21 1   
    18     9    22 1   
    19    10    14 1   
    20    11    14 1   
    21    12    14 1   
@<TRIPOS>SUBSTRUCTURE
     1 F8U         1 TEMP              0 ****  ****    0 ROOT
