@<TRIPOS>MOLECULE
F8U
   22    21     1     0     0
SMALL
No Charge or Current Charge


@<TRIPOS>ATOM
      1 C01         24.8750    49.3620    80.6320 c3         1 F8U      -0.393900
      2 C02         23.3650    49.1730    80.8760 c3         1 F8U       0.220300
      3 C03         22.4560    49.6510    79.6760 c3         1 F8U       0.220300
      4 C04         22.6070    51.1460    79.3320 c3         1 F8U      -0.393900
      5 O06         20.4210    51.1390    77.9950 o          1 F8U      -0.706367
      6 O07         21.9690    53.0520    77.7250 o          1 F8U      -0.706367
      7 O08         22.5520    50.8470    76.7720 o          1 F8U      -0.706367
      8 O09         21.0700    49.4440    79.9830 oh         1 F8U      -0.694000
      9 O10         23.1660    47.7760    81.1290 oh         1 F8U      -0.694000
     10 O12         25.4620    47.7490    82.5340 o          1 F8U      -0.706367
     11 O13         27.2430    49.2090    81.6270 o          1 F8U      -0.706367
     12 O14         25.4390    50.1770    83.0120 o          1 F8U      -0.706367
     13 S05         21.8040    51.5940    77.7900 s6         1 F8U       1.322100
     14 S11         25.8610    49.0990    82.1090 s6         1 F8U       1.322100
     15 H1          25.2390    48.6640    79.8710 h1         1 F8U       0.077200
     16 H2          25.1010    50.3840    80.3210 h1         1 F8U       0.077200
     17 H3          23.0780    49.7590    81.7610 h1         1 F8U       0.035200
     18 H4          22.7370    49.0600    78.7930 h1         1 F8U       0.035200
     19 H5          23.6560    51.4160    79.1910 h1         1 F8U       0.077200
     20 H6          22.1750    51.7750    80.1170 h1         1 F8U       0.077200
     21 H7          20.5860    49.9860    79.3070 ho         1 F8U       0.475500
     22 H8          23.9330    47.5200    81.7050 ho         1 F8U       0.475500
@<TRIPOS>BOND
     1     1     2 1   
     2     1    14 1   
     3     1    15 1   
     4     1    16 1   
     5     2     3 1   
     6     2     9 1   
     7     2    17 1   
     8     3     4 1   
     9     3     8 1   
    10     3    18 1   
    11     4    13 1   
    12     4    19 1   
    13     4    20 1   
    14     5    13 1   
    15     6    13 1   
    16     7    13 1   
    17     8    21 1   
    18     9    22 1   
    19    10    14 1   
    20    11    14 1   
    21    12    14 1   
@<TRIPOS>SUBSTRUCTURE
     1 F8U         1 TEMP              0 ****  ****    0 ROOT
