@<TRIPOS>MOLECULE
F8V
   82    88     1     0     0
SMALL
abcg2


@<TRIPOS>ATOM
      1 O1          48.1170    19.3580     7.0170 o          1 F8V      -0.582100
      2 C20         47.8540    19.8590     8.1110 c          1 F8V       0.606100
      3 N4          47.6310    21.1860     8.2580 n          1 F8V      -0.425800
      4 C24         47.6380    22.0840     7.1120 c6         1 F8V       0.093000
      5 C23         46.3120    22.8230     7.0160 c6         1 F8V       0.184300
      6 N5          45.9920    23.5150     8.2680 nh         1 F8V      -0.800400
      7 C25         45.0580    24.5450     8.2370 ca         1 F8V       0.326000
      8 C30         45.0500    25.4790     7.1800 ca         1 F8V      -0.187500
      9 C29         44.1590    26.5320     7.1620 ca         1 F8V      -0.028000
     10 C28         43.2210    26.7180     8.1870 cp         1 F8V      -0.198500
     11 C31         42.2690    27.8410     8.1590 cp         1 F8V       0.205500
     12 N7          42.3240    28.6870     7.1160 nb         1 F8V      -0.185500
     13 C34         41.4560    29.6950     7.0970 ca         1 F8V       0.115900
     14 C33         40.5190    29.8900     8.1010 ca         1 F8V      -0.231000
     15 C32         40.5380    28.9680     9.1380 ca         1 F8V       0.115900
     16 N6          41.3990    27.9550     9.1770 nb         1 F8V      -0.185500
     17 C27         43.2230    25.7910     9.2330 ca         1 F8V      -0.028000
     18 C26         44.1110    24.7290     9.2620 ca         1 F8V      -0.187500
     19 C22         46.0130    22.6210     9.4200 c6         1 F8V       0.184300
     20 C21         47.3430    21.8810     9.5050 c6         1 F8V       0.093000
     21 C19         47.7690    19.0130     9.3820 c3         1 F8V       0.099800
     22 N           47.9660    17.6040     9.1380 n3         1 F8V      -0.686600
     23 C1          46.8440    16.9180     8.5020 c5         1 F8V       0.157800
     24 C2          47.2470    15.4520     8.6090 c5         1 F8V      -0.053400
     25 C3          48.0190    15.3720     9.9670 c5         1 F8V      -0.002000
     26 C           48.2060    16.8520    10.3700 c5         1 F8V       0.175800
     27 S           46.9520    14.4620    11.1460 ss         1 F8V      -0.440000
     28 C18         47.9300    14.5650    12.6700 c3         1 F8V       0.040900
     29 C4          49.3790    14.6810     9.7280 c          1 F8V       0.607100
     30 O           50.3820    15.3420     9.4810 o          1 F8V      -0.568100
     31 N1          49.3330    13.3300     9.7460 ns         1 F8V      -0.147000
     32 C5          50.3410    12.3810     9.4880 ca         1 F8V      -0.050000
     33 C10         49.9550    11.0490     9.4850 ca         1 F8V      -0.101000
     34 C9          50.9200    10.0640     9.2500 ca         1 F8V      -0.189900
     35 C11         50.9250     8.6320     9.1430 cc         1 F8V       0.399500
     36 N2          52.1470     8.2030     8.8490 nd         1 F8V      -0.504100
     37 N3          52.9400     9.2920     8.7590 na         1 F8V      -0.067400
     38 C8          52.2560    10.4460     8.9950 ca         1 F8V      -0.053200
     39 C7          52.6520    11.7860     8.9990 ca         1 F8V      -0.108000
     40 C6          51.6910    12.7430     9.2520 ca         1 F8V      -0.087000
     41 C12         49.8060     7.6980     9.2950 ca         1 F8V      -0.106900
     42 C17         49.7640     6.5070     8.5590 ca         1 F8V      -0.065500
     43 C16         48.7060     5.6190     8.6950 ca         1 F8V      -0.152000
     44 C15         47.6840     5.9390     9.5720 ca         1 F8V       0.169000
     45 F           46.6400     5.0810     9.7010 f          1 F8V      -0.183000
     46 C14         47.6880     7.1000    10.3220 ca         1 F8V      -0.152000
     47 C13         48.7560     7.9760    10.1790 ca         1 F8V      -0.065500
     48 H28         47.8050    21.5010     6.2110 h1         1 F8V       0.063950
     49 H27         48.4560    22.8020     7.2260 h1         1 F8V       0.063950
     50 H26         46.3730    23.5350     6.1990 h1         1 F8V       0.049450
     51 H25         45.5140    22.1040     6.7780 h1         1 F8V       0.049450
     52 H32         45.7690    25.3970     6.3780 ha         1 F8V       0.114500
     53 H31         44.1900    27.2350     6.3420 ha         1 F8V       0.132500
     54 H35         41.5130    30.3690     6.2480 h4         1 F8V       0.023600
     55 H34         39.8160    30.7100     8.0770 ha         1 F8V       0.135000
     56 H33         39.8400    29.0460     9.9660 h4         1 F8V       0.023600
     57 H30         42.5030    25.8970    10.0340 ha         1 F8V       0.132500
     58 H29         44.0500    24.0320    10.0840 ha         1 F8V       0.114500
     59 H24         45.9000    23.2050    10.3310 h1         1 F8V       0.049450
     60 H23         45.1910    21.8920     9.3740 h1         1 F8V       0.049450
     61 H22         47.3110    21.1900    10.3400 h1         1 F8V       0.063950
     62 H21         48.1450    22.6010     9.6940 h1         1 F8V       0.063950
     63 H19         48.5450    19.3570    10.0700 h1         1 F8V       0.047200
     64 H20         46.8020    19.2010     9.8770 h1         1 F8V       0.047200
     65 H4          46.7150    17.2500     7.4740 h1         1 F8V       0.052700
     66 H5          45.9040    17.1030     9.0490 h1         1 F8V       0.052700
     67 H6          46.3970    14.7710     8.5800 hc         1 F8V       0.070700
     68 H7          47.9170    15.1860     7.7920 hc         1 F8V       0.070700
     69 H2          49.2010    17.0570    10.7580 h1         1 F8V       0.055200
     70 H3          47.4670    17.1090    11.1420 h1         1 F8V       0.055200
     71 H18         47.3700    14.0270    13.4330 h1         1 F8V       0.067033
     72 H17         48.9020    14.0910    12.5380 h1         1 F8V       0.067033
     73 H16         48.0560    15.6010    12.9810 h1         1 F8V       0.067033
     74 H8          48.4340    12.9470    10.0120 hn         1 F8V       0.168000
     75 H11         48.9180    10.7910     9.6560 ha         1 F8V       0.120000
     76 H1          53.9210     9.1800     8.5620 hn         1 F8V       0.380000
     77 H10         53.6780    12.0710     8.8080 ha         1 F8V       0.125000
     78 H9          51.9590    13.7860     9.2660 ha         1 F8V       0.154000
     79 H15         50.5630     6.2820     7.8660 ha         1 F8V       0.125000
     80 H14         48.6640     4.7000     8.1250 ha         1 F8V       0.133000
     81 H13         46.8760     7.3090    11.0050 ha         1 F8V       0.133000
     82 H12         48.7790     8.8730    10.7810 ha         1 F8V       0.125000
@<TRIPOS>BOND
     1     1     2 2   
     2     2     3 1   
     3     2    21 1   
     4     3     4 1   
     5     3    20 1   
     6     4     5 1   
     7     4    48 1   
     8     4    49 1   
     9     5     6 1   
    10     5    50 1   
    11     5    51 1   
    12     6     7 1   
    13     6    19 1   
    14     7     8 ar  
    15     7    18 ar  
    16     8     9 ar  
    17     8    52 1   
    18     9    10 ar  
    19     9    53 1   
    20    10    11 1   
    21    10    17 ar  
    22    11    12 ar  
    23    11    16 ar  
    24    12    13 ar  
    25    13    14 ar  
    26    13    54 1   
    27    14    15 ar  
    28    14    55 1   
    29    15    16 ar  
    30    15    56 1   
    31    17    18 ar  
    32    17    57 1   
    33    18    58 1   
    34    19    20 1   
    35    19    59 1   
    36    19    60 1   
    37    20    61 1   
    38    20    62 1   
    39    21    22 1   
    40    21    63 1   
    41    21    64 1   
    42    22    23 1   
    43    22    26 1   
    44    23    24 1   
    45    23    65 1   
    46    23    66 1   
    47    24    25 1   
    48    24    67 1   
    49    24    68 1   
    50    25    26 1   
    51    25    27 1   
    52    25    29 1   
    53    26    69 1   
    54    26    70 1   
    55    27    28 1   
    56    28    71 1   
    57    28    72 1   
    58    28    73 1   
    59    29    30 2   
    60    29    31 1   
    61    31    32 1   
    62    31    74 1   
    63    32    33 ar  
    64    32    40 ar  
    65    33    34 ar  
    66    33    75 1   
    67    34    35 1   
    68    34    38 ar  
    69    35    36 2   
    70    35    41 1   
    71    36    37 1   
    72    37    38 1   
    73    37    76 1   
    74    38    39 ar  
    75    39    40 ar  
    76    39    77 1   
    77    40    78 1   
    78    41    42 ar  
    79    41    47 ar  
    80    42    43 ar  
    81    42    79 1   
    82    43    44 ar  
    83    43    80 1   
    84    44    45 1   
    85    44    46 ar  
    86    46    47 ar  
    87    46    81 1   
    88    47    82 1   
@<TRIPOS>SUBSTRUCTURE
     1 F8V         1 TEMP              0 ****  ****    0 ROOT
