@<TRIPOS>MOLECULE
F8V
   82    88     1     0     0
SMALL
No Charge or Current Charge


@<TRIPOS>ATOM
      1 O1          48.2950    19.8840     6.6000 o          1 F8V      -0.582100
      2 C20         48.0680    20.1460     7.7780 c          1 F8V       0.606100
      3 N4          47.9120    21.4950     8.1830 n          1 F8V      -0.425800
      4 C24         47.9430    22.6270     7.2160 c6         1 F8V       0.093000
      5 C23         46.5360    23.2660     7.0430 c6         1 F8V       0.184300
      6 N5          45.9250    23.6440     8.3570 nh         1 F8V      -0.800400
      7 C25         44.9460    24.6630     8.4160 ca         1 F8V       0.326000
      8 C30         45.2290    25.9350     7.8950 ca         1 F8V      -0.187500
      9 C29         44.2740    26.9640     7.9430 ca         1 F8V      -0.028000
     10 C28         42.9910    26.7530     8.5190 cp         1 F8V      -0.198500
     11 C31         41.9600    27.8540     8.5720 cp         1 F8V       0.205500
     12 N7          42.2930    29.0570     8.0490 nb         1 F8V      -0.185500
     13 C34         41.3740    30.0430     8.0950 ca         1 F8V       0.115900
     14 C33         40.1100    29.8320     8.6670 ca         1 F8V      -0.231000
     15 C32         39.8420    28.5560     9.1880 ca         1 F8V       0.115900
     16 N6          40.7640    27.5740     9.1390 nb         1 F8V      -0.185500
     17 C27         42.7220    25.4590     9.0430 ca         1 F8V      -0.028000
     18 C26         43.6840    24.4360     8.9920 ca         1 F8V      -0.187500
     19 C22         45.9600    22.5470     9.3770 c6         1 F8V       0.184300
     20 C21         47.3760    21.9190     9.5090 c6         1 F8V       0.093000
     21 C19         47.9870    19.0290     8.8740 c3         1 F8V       0.099800
     22 N           48.2450    17.6040     8.4890 n3         1 F8V      -0.686600
     23 C1          47.2560    16.9840     7.5800 c5         1 F8V       0.157800
     24 C2          47.8670    15.5710     7.4430 c5         1 F8V      -0.053400
     25 C3          48.3030    15.2480     8.9130 c5         1 F8V      -0.002000
     26 C           48.3150    16.6470     9.6210 c5         1 F8V       0.175800
     27 S           46.9470    14.1870     9.7060 ss         1 F8V      -0.440000
     28 C18         47.4800    14.1080    11.4830 c3         1 F8V       0.040900
     29 C4          49.7380    14.6070     8.9220 c          1 F8V       0.607100
     30 O           50.8060    15.2090     8.8950 o          1 F8V      -0.568100
     31 N1          49.6170    13.2290     9.0550 ns         1 F8V      -0.147000
     32 C5          50.5790    12.1850     9.1370 ca         1 F8V      -0.050000
     33 C10         50.1020    10.8890     9.4410 ca         1 F8V      -0.101000
     34 C9          51.0330     9.8430     9.5390 ca         1 F8V      -0.189900
     35 C11         50.9040     8.4210     9.7920 cc         1 F8V       0.399500
     36 N2          52.0820     7.7840     9.6730 nd         1 F8V      -0.504100
     37 N3          52.9810     8.8180     9.3810 na         1 F8V      -0.067400
     38 C8          52.3550    10.0430     9.2970 ca         1 F8V      -0.053200
     39 C7          52.8730    11.3020     8.9800 ca         1 F8V      -0.108000
     40 C6          51.9710    12.3860     8.9100 ca         1 F8V      -0.087000
     41 C12         49.6500     7.7330    10.1260 ca         1 F8V      -0.106900
     42 C17         49.4250     6.4120     9.6760 ca         1 F8V      -0.065500
     43 C16         48.2470     5.7290    10.0290 ca         1 F8V      -0.152000
     44 C15         47.2980     6.3500    10.8520 ca         1 F8V       0.169000
     45 F           46.1690     5.6920    11.1940 f          1 F8V      -0.183000
     46 C14         47.5250     7.6460    11.3360 ca         1 F8V      -0.152000
     47 C13         48.7010     8.3320    10.9840 ca         1 F8V      -0.065500
     48 H28         48.3190    22.3050     6.2350 h1         1 F8V       0.063950
     49 H27         48.6380    23.3930     7.5890 h1         1 F8V       0.063950
     50 H26         46.6320    24.1430     6.3870 h1         1 F8V       0.049450
     51 H25         45.8840    22.5470     6.5260 h1         1 F8V       0.049450
     52 H32         46.2030    26.1350     7.4590 ha         1 F8V       0.114500
     53 H31         44.5430    27.9330     7.5280 ha         1 F8V       0.132500
     54 H35         41.6560    31.0050     7.6710 h4         1 F8V       0.023600
     55 H34         39.3680    30.6250     8.7060 ha         1 F8V       0.135000
     56 H33         38.8850    28.3160     9.6470 h4         1 F8V       0.023600
     57 H30         41.7590    25.2330     9.4950 ha         1 F8V       0.132500
     58 H29         43.4330    23.4590     9.3940 ha         1 F8V       0.114500
     59 H24         45.6600    22.9330    10.3630 h1         1 F8V       0.049450
     60 H23         45.2460    21.7580     9.1000 h1         1 F8V       0.049450
     61 H22         47.3370    21.0890    10.2260 h1         1 F8V       0.063950
     62 H21         48.0550    22.6710     9.9360 h1         1 F8V       0.063950
     63 H19         48.7080    19.3210     9.6490 h1         1 F8V       0.047200
     64 H20         46.9900    19.1030     9.3270 h1         1 F8V       0.047200
     65 H4          47.1840    17.4920     6.6090 h1         1 F8V       0.052700
     66 H5          46.2520    16.9510     8.0280 h1         1 F8V       0.052700
     67 H6          47.1570    14.8460     7.0300 hc         1 F8V       0.070700
     68 H7          48.7270    15.6000     6.7630 hc         1 F8V       0.070700
     69 H2          49.2060    16.8040    10.2440 h1         1 F8V       0.055200
     70 H3          47.4370    16.7660    10.2720 h1         1 F8V       0.055200
     71 H18         46.7830    13.4740    12.0460 h1         1 F8V       0.067033
     72 H17         48.4880    13.6800    11.5620 h1         1 F8V       0.067033
     73 H16         47.4790    15.1110    11.9270 h1         1 F8V       0.067033
     74 H8          48.6580    12.9090     9.1060 hn         1 F8V       0.168000
     75 H11         49.0390    10.7120     9.5840 ha         1 F8V       0.120000
     76 H1          53.9740     8.6370     9.2380 hn         1 F8V       0.380000
     77 H10         53.9340    11.4430     8.7830 ha         1 F8V       0.125000
     78 H9          52.3660    13.3650     8.6550 ha         1 F8V       0.154000
     79 H15         50.1580     5.9190     9.0410 ha         1 F8V       0.125000
     80 H14         48.0720     4.7180     9.6680 ha         1 F8V       0.133000
     81 H13         46.7950     8.1140    11.9920 ha         1 F8V       0.133000
     82 H12         48.8800     9.3210    11.3980 ha         1 F8V       0.125000
@<TRIPOS>BOND
     1     1     2 2   
     2     2     3 1   
     3     2    21 1   
     4     3     4 1   
     5     3    20 1   
     6     4     5 1   
     7     4    48 1   
     8     4    49 1   
     9     5     6 1   
    10     5    50 1   
    11     5    51 1   
    12     6     7 1   
    13     6    19 1   
    14     7     8 ar  
    15     7    18 ar  
    16     8     9 ar  
    17     8    52 1   
    18     9    10 ar  
    19     9    53 1   
    20    10    11 1   
    21    10    17 ar  
    22    11    12 ar  
    23    11    16 ar  
    24    12    13 ar  
    25    13    14 ar  
    26    13    54 1   
    27    14    15 ar  
    28    14    55 1   
    29    15    16 ar  
    30    15    56 1   
    31    17    18 ar  
    32    17    57 1   
    33    18    58 1   
    34    19    20 1   
    35    19    59 1   
    36    19    60 1   
    37    20    61 1   
    38    20    62 1   
    39    21    22 1   
    40    21    63 1   
    41    21    64 1   
    42    22    23 1   
    43    22    26 1   
    44    23    24 1   
    45    23    65 1   
    46    23    66 1   
    47    24    25 1   
    48    24    67 1   
    49    24    68 1   
    50    25    26 1   
    51    25    27 1   
    52    25    29 1   
    53    26    69 1   
    54    26    70 1   
    55    27    28 1   
    56    28    71 1   
    57    28    72 1   
    58    28    73 1   
    59    29    30 2   
    60    29    31 1   
    61    31    32 1   
    62    31    74 1   
    63    32    33 ar  
    64    32    40 ar  
    65    33    34 ar  
    66    33    75 1   
    67    34    35 1   
    68    34    38 ar  
    69    35    36 2   
    70    35    41 1   
    71    36    37 1   
    72    37    38 1   
    73    37    76 1   
    74    38    39 ar  
    75    39    40 ar  
    76    39    77 1   
    77    40    78 1   
    78    41    42 ar  
    79    41    47 ar  
    80    42    43 ar  
    81    42    79 1   
    82    43    44 ar  
    83    43    80 1   
    84    44    45 1   
    85    44    46 ar  
    86    46    47 ar  
    87    46    81 1   
    88    47    82 1   
@<TRIPOS>SUBSTRUCTURE
     1 F8V         1 TEMP              0 ****  ****    0 ROOT
