@<TRIPOS>MOLECULE
F8W
  100   101     1     0     0
SMALL
No Charge or Current Charge


@<TRIPOS>ATOM
      1 CAD        -16.5190     3.7200    -1.3100 ca         1 F8W      -0.089000
      2 CAE        -17.6930     3.5060    -2.0500 ca         1 F8W       0.071600
      3 OAH        -18.7030     4.4250    -2.0130 oh         1 F8W      -0.546600
      4 CAF        -17.8340     2.3440    -2.8340 ca         1 F8W       0.101600
      5 OAG        -18.9810     2.1410    -3.5550 oh         1 F8W      -0.543600
      6 CAA        -16.7960     1.4000    -2.8720 ca         1 F8W      -0.154000
      7 CAB        -15.6190     1.6120    -2.1310 ca         1 F8W      -0.082500
      8 CAC        -15.4640     2.7770    -1.3370 ca         1 F8W      -0.147100
      9 CAI        -14.2100     3.0420    -0.5250 c          1 F8W       0.615200
     10 OAK        -14.0760     4.0470     0.1610 o          1 F8W      -0.603100
     11 NAJ        -13.2160     2.0910    -0.5910 ns         1 F8W      -0.502900
     12 CAL        -11.9410     2.1770     0.1230 c3         1 F8W       0.103000
     13 CAM        -11.0540     0.9490    -0.1480 c3         1 F8W      -0.101400
     14 CAN         -9.7050     1.0230     0.5910 c3         1 F8W       0.163300
     15 NAO         -8.8960    -0.1680     0.2860 n7         1 F8W      -0.857400
     16 CAP         -7.5670    -0.2010     0.9220 c3         1 F8W       0.157800
     17 CAQ         -6.8120    -1.4810     0.5130 c3         1 F8W      -0.076900
     18 CAR         -5.4030    -1.5740     1.1400 c3         1 F8W      -0.094400
     19 CAS         -4.6470    -2.8520     0.7290 c3         1 F8W       0.108500
     20 NAT         -3.3180    -2.9070     1.3340 ns         1 F8W      -0.527900
     21 CAU         -2.3940    -3.9000     1.0900 c          1 F8W       0.613600
     22 OAX         -2.6440    -4.8500     0.3630 o          1 F8W      -0.564600
     23 CAV         -1.0700    -3.7590     1.8560 c3         1 F8W      -0.166400
     24 CAW          0.1180    -3.3440     0.9350 c3         1 F8W       0.044000
     25 CBW          0.3900    -4.4840    -0.1540 c          1 F8W       0.755000
     26 OBY          0.6860    -5.6070     0.2400 o          1 F8W      -0.694500
     27 OBX          0.2950    -4.2080    -1.3460 o          1 F8W      -0.694500
     28 OAY         -0.2270    -2.0600     0.3570 oh         1 F8W      -0.613000
     29 CAZ          1.3920    -3.1210     1.8050 c3         1 F8W      -0.166400
     30 CBA          2.5880    -2.6100     0.9880 c          1 F8W       0.613600
     31 OBD          3.2370    -3.3290     0.2430 o          1 F8W      -0.564600
     32 NBB          2.9180    -1.2890     1.2060 ns         1 F8W      -0.527900
     33 CBC          4.0470    -0.5950     0.5820 c3         1 F8W       0.108500
     34 CBE          5.3850    -0.9200     1.2770 c3         1 F8W      -0.094400
     35 CBF          6.5840    -0.1750     0.6490 c3         1 F8W      -0.076900
     36 CBG          7.9220    -0.4990     1.3440 c3         1 F8W       0.157800
     37 NBH          9.0210     0.2420     0.7030 n7         1 F8W      -0.857400
     38 CBI         10.3560     0.0010     1.2770 c3         1 F8W       0.163300
     39 CBJ         11.4160     0.8210     0.5190 c3         1 F8W      -0.101400
     40 CBK         12.8360     0.6090     1.0790 c3         1 F8W       0.103000
     41 NBL         13.8370     1.4100     0.3690 ns         1 F8W      -0.502900
     42 CBM         14.3860     1.0850    -0.8530 c          1 F8W       0.615200
     43 OBO         14.0820     0.0490    -1.4300 o          1 F8W      -0.603100
     44 CBN         15.3830     2.0700    -1.4370 ca         1 F8W      -0.147100
     45 CBT         15.9860     1.7870    -2.6870 ca         1 F8W      -0.089000
     46 CBS         16.9140     2.6780    -3.2570 ca         1 F8W       0.071600
     47 OBU         17.4960     2.3980    -4.4680 oh         1 F8W      -0.546600
     48 CBR         17.2500     3.8660    -2.5800 ca         1 F8W       0.101600
     49 OBV         18.1500     4.7300    -3.1330 oh         1 F8W      -0.543600
     50 CBQ         16.6620     4.1610    -1.3430 ca         1 F8W      -0.154000
     51 CBP         15.7340     3.2720    -0.7710 ca         1 F8W      -0.082500
     52 H1         -16.4320     4.6240    -0.7110 ha         1 F8W       0.145000
     53 H2         -19.4160     4.0770    -2.5970 ho         1 F8W       0.479500
     54 H3         -18.9040     1.2880    -4.0370 ho         1 F8W       0.481000
     55 H4         -16.8930     0.4990    -3.4740 ha         1 F8W       0.124000
     56 H5         -14.8380     0.8580    -2.1860 ha         1 F8W       0.117000
     57 H6         -13.3890     1.2840    -1.1750 hn         1 F8W       0.313500
     58 H7         -11.4180     3.0880    -0.1970 h1         1 F8W       0.052200
     59 H8         -12.1430     2.2550     1.2000 h1         1 F8W       0.052200
     60 H9         -11.5890     0.0430     0.1610 hc         1 F8W       0.052700
     61 H10        -10.8700     0.8690    -1.2270 hc         1 F8W       0.052700
     62 H11         -9.1750     1.9340     0.2800 h1         1 F8W       0.028450
     63 H12         -9.8900     1.0950     1.6720 h1         1 F8W       0.028450
     64 H13         -9.4180    -0.9970     0.5970 hn         1 F8W       0.403500
     65 H15         -6.9780     0.6750     0.6180 h1         1 F8W       0.026950
     66 H16         -7.6660    -0.1760     2.0160 h1         1 F8W       0.026950
     67 H17         -7.3980    -2.3590     0.8140 hc         1 F8W       0.049200
     68 H18         -6.7220    -1.5120    -0.5800 hc         1 F8W       0.049200
     69 H19         -4.8160    -0.6970     0.8390 hc         1 F8W       0.036700
     70 H20         -5.4920    -1.5440     2.2330 hc         1 F8W       0.036700
     71 H21         -5.2170    -3.7360     1.0440 h1         1 F8W       0.049200
     72 H22         -4.5400    -2.8810    -0.3640 h1         1 F8W       0.049200
     73 H23         -3.0390    -2.1650     1.9640 hn         1 F8W       0.294500
     74 H24         -1.1850    -3.0020     2.6420 hc         1 F8W       0.043700
     75 H25         -0.8350    -4.7230     2.3210 hc         1 F8W       0.043700
     76 H27         -0.3760    -1.4320     1.0930 ho         1 F8W       0.377000
     77 H28          1.1550    -2.3970     2.5940 hc         1 F8W       0.043700
     78 H29          1.6720    -4.0740     2.2690 hc         1 F8W       0.043700
     79 H30          2.3330    -0.7740     1.8520 hn         1 F8W       0.294500
     80 H31          4.1000    -0.8760    -0.4780 h1         1 F8W       0.049200
     81 H32          3.8610     0.4860     0.6350 h1         1 F8W       0.049200
     82 H33          5.3110    -0.6540     2.3390 hc         1 F8W       0.036700
     83 H34          5.5670    -2.0000     1.2270 hc         1 F8W       0.036700
     84 H35          6.6560    -0.4410    -0.4130 hc         1 F8W       0.049200
     85 H36          6.4020     0.9060     0.7000 hc         1 F8W       0.049200
     86 H37          7.8490    -0.2300     2.4070 h1         1 F8W       0.026950
     87 H38          8.1050    -1.5810     1.2830 h1         1 F8W       0.026950
     88 H39          8.8170     1.2460     0.7820 hn         1 F8W       0.403500
     89 H41         10.3720     0.2850     2.3380 h1         1 F8W       0.028450
     90 H42         10.6120    -1.0660     1.2110 h1         1 F8W       0.028450
     91 H43         11.3980     0.5390    -0.5410 hc         1 F8W       0.052700
     92 H44         11.1630     1.8860     0.5770 hc         1 F8W       0.052700
     93 H45         12.8550     0.8920     2.1410 h1         1 F8W       0.052200
     94 H46         13.1080    -0.4530     1.0090 h1         1 F8W       0.052200
     95 H47         14.1410     2.2790     0.7890 hn         1 F8W       0.313500
     96 H48         15.7310     0.8700    -3.2140 ha         1 F8W       0.145000
     97 H49         17.1540     1.5380    -4.7990 ho         1 F8W       0.479500
     98 H50         18.4260     4.3240    -3.9870 ho         1 F8W       0.481000
     99 H51         16.9230     5.0800    -0.8240 ha         1 F8W       0.124000
    100 H52         15.2990     3.5350     0.1890 ha         1 F8W       0.117000
@<TRIPOS>BOND
     1     1     2 ar  
     2     1     8 ar  
     3     1    52 1   
     4     2     3 1   
     5     2     4 ar  
     6     3    53 1   
     7     4     5 1   
     8     4     6 ar  
     9     5    54 1   
    10     6     7 ar  
    11     6    55 1   
    12     7     8 ar  
    13     7    56 1   
    14     8     9 1   
    15     9    10 2   
    16     9    11 1   
    17    11    12 1   
    18    11    57 1   
    19    12    13 1   
    20    12    58 1   
    21    12    59 1   
    22    13    14 1   
    23    13    60 1   
    24    13    61 1   
    25    14    15 1   
    26    14    62 1   
    27    14    63 1   
    28    15    16 1   
    29    15    64 1   
    30    16    17 1   
    31    16    65 1   
    32    16    66 1   
    33    17    18 1   
    34    17    67 1   
    35    17    68 1   
    36    18    19 1   
    37    18    69 1   
    38    18    70 1   
    39    19    20 1   
    40    19    71 1   
    41    19    72 1   
    42    20    21 1   
    43    20    73 1   
    44    21    22 2   
    45    21    23 1   
    46    23    24 1   
    47    23    74 1   
    48    23    75 1   
    49    24    25 1   
    50    24    28 1   
    51    24    29 1   
    52    25    26 1   
    53    25    27 1   
    54    28    76 1   
    55    29    30 1   
    56    29    77 1   
    57    29    78 1   
    58    30    31 2   
    59    30    32 1   
    60    32    33 1   
    61    32    79 1   
    62    33    34 1   
    63    33    80 1   
    64    33    81 1   
    65    34    35 1   
    66    34    82 1   
    67    34    83 1   
    68    35    36 1   
    69    35    84 1   
    70    35    85 1   
    71    36    37 1   
    72    36    86 1   
    73    36    87 1   
    74    37    38 1   
    75    37    88 1   
    76    38    39 1   
    77    38    89 1   
    78    38    90 1   
    79    39    40 1   
    80    39    91 1   
    81    39    92 1   
    82    40    41 1   
    83    40    93 1   
    84    40    94 1   
    85    41    42 1   
    86    41    95 1   
    87    42    43 2   
    88    42    44 1   
    89    44    45 ar  
    90    44    51 ar  
    91    45    46 ar  
    92    45    96 1   
    93    46    47 1   
    94    46    48 ar  
    95    47    97 1   
    96    48    49 1   
    97    48    50 ar  
    98    49    98 1   
    99    50    51 ar  
   100    50    99 1   
   101    51   100 1   
@<TRIPOS>SUBSTRUCTURE
     1 F8W         1 TEMP              0 ****  ****    0 ROOT
