@<TRIPOS>MOLECULE
F8W
  100   101     1     0     0
SMALL
bcc


@<TRIPOS>ATOM
      1 CAD        -16.0200     4.0980    -0.6690 ca         1 F8W      -0.107000
      2 CAE        -17.3290     3.9770    -1.0940 ca         1 F8W       0.071600
      3 OAH        -18.0770     5.0900    -1.2410 oh         1 F8W      -0.507600
      4 CAF        -17.8520     2.7010    -1.3620 ca         1 F8W       0.101600
      5 OAG        -19.1350     2.6590    -1.7680 oh         1 F8W      -0.504600
      6 CAA        -17.0500     1.5840    -1.1980 ca         1 F8W      -0.172000
      7 CAB        -15.7320     1.7160    -0.7830 ca         1 F8W      -0.100500
      8 CAC        -15.2040     2.9750    -0.5230 ca         1 F8W      -0.147100
      9 CAI        -13.8020     3.1870    -0.0600 c          1 F8W       0.682200
     10 OAK        -13.4830     4.1860     0.5740 o          1 F8W      -0.603100
     11 NAJ        -12.9200     2.2250    -0.3760 ns         1 F8W      -0.569900
     12 CAL        -11.5230     2.2970    -0.0040 c3         1 F8W       0.103000
     13 CAM        -10.8220     0.9820    -0.3040 c3         1 F8W      -0.101400
     14 CAN         -9.3500     1.0400     0.0700 c3         1 F8W       0.163300
     15 NAO         -8.6840    -0.2150    -0.2170 n7         1 F8W      -0.802200
     16 CAP         -7.2890    -0.2090     0.1790 c3         1 F8W       0.157800
     17 CAQ         -6.6240    -1.5470    -0.1040 c3         1 F8W      -0.076900
     18 CAR         -5.1820    -1.5870     0.3830 c3         1 F8W      -0.094400
     19 CAS         -4.5190    -2.9240     0.0910 c3         1 F8W       0.108500
     20 NAT         -3.2040    -2.9850     0.6920 ns         1 F8W      -0.594900
     21 CAU         -2.5100    -4.1250     0.8280 c          1 F8W       0.680600
     22 OAX         -2.9370    -5.2010     0.4270 o          1 F8W      -0.564600
     23 CAV         -1.1720    -3.9930     1.5200 c3         1 F8W      -0.166400
     24 CAW          0.0040    -3.9860     0.5240 c3         1 F8W       0.020800
     25 CBW          0.0440    -5.3460    -0.2280 c          1 F8W       0.965600
     26 OBY          0.2700    -6.3370     0.4930 o          1 F8W      -0.799800
     27 OBX         -0.1710    -5.3350    -1.4480 o          1 F8W      -0.799800
     28 OAY         -0.1600    -2.9490    -0.4170 oh         1 F8W      -0.550800
     29 CAZ          1.2940    -3.7690     1.3270 c3         1 F8W      -0.166400
     30 CBA          2.4980    -3.5770     0.4330 c          1 F8W       0.680600
     31 OBD          2.8590    -4.4320    -0.3650 o          1 F8W      -0.564600
     32 NBB          3.1480    -2.4120     0.5950 ns         1 F8W      -0.594900
     33 CBC          4.3420    -2.0420    -0.1330 c3         1 F8W       0.108500
     34 CBE          5.2690    -1.1940     0.7230 c3         1 F8W      -0.094400
     35 CBF          6.5480    -0.8260    -0.0180 c3         1 F8W      -0.076900
     36 CBG          7.4790     0.0280     0.8260 c3         1 F8W       0.157800
     37 NBH          8.7060     0.3380     0.1160 n7         1 F8W      -0.802200
     38 CBI          9.6050     1.1730     0.8880 c3         1 F8W       0.163300
     39 CBJ         10.8790     1.4790     0.1170 c3         1 F8W      -0.101400
     40 CBK         11.8160     2.3730     0.9210 c3         1 F8W       0.103000
     41 NBL         13.0290     2.7120     0.2100 ns         1 F8W      -0.569900
     42 CBM         14.1350     1.9510     0.2300 c          1 F8W       0.682200
     43 OBO         14.2360     0.9460     0.9240 o          1 F8W      -0.603100
     44 CBN         15.2650     2.4110    -0.6290 ca         1 F8W      -0.147100
     45 CBT         16.5550     2.0090    -0.2770 ca         1 F8W      -0.107000
     46 CBS         17.6460     2.3960    -1.0300 ca         1 F8W       0.071600
     47 OBU         18.9230     2.0610    -0.7420 oh         1 F8W      -0.507600
     48 CBR         17.4640     3.1860    -2.1760 ca         1 F8W       0.101600
     49 OBV         18.5020     3.5780    -2.9350 oh         1 F8W      -0.504600
     50 CBQ         16.1810     3.5640    -2.5380 ca         1 F8W      -0.172000
     51 CBP         15.0890     3.1830    -1.7710 ca         1 F8W      -0.100500
     52 H1         -15.6290     5.0850    -0.4580 ha         1 F8W       0.163000
     53 H2         -18.9620     4.8670    -1.5530 ho         1 F8W       0.440500
     54 H3         -19.4160     1.7520    -1.9380 ho         1 F8W       0.442000
     55 H4         -17.4570     0.5980    -1.3910 ha         1 F8W       0.142000
     56 H5         -15.1450     0.8180    -0.6430 ha         1 F8W       0.135000
     57 H6         -13.1860     1.5140    -1.0390 hn         1 F8W       0.313500
     58 H7         -11.0260     3.1130    -0.5380 h1         1 F8W       0.052200
     59 H8         -11.4470     2.5240     1.0620 h1         1 F8W       0.052200
     60 H9         -11.3110     0.1740     0.2500 hc         1 F8W       0.052700
     61 H10        -10.9140     0.7420    -1.3670 hc         1 F8W       0.052700
     62 H11         -8.8590     1.8290    -0.5080 h1         1 F8W       0.028450
     63 H12         -9.2550     1.3340     1.1290 h1         1 F8W       0.028450
     64 H13         -9.1580    -0.9550     0.2910 hn         1 F8W       0.348300
     65 H15         -6.7760     0.5780    -0.3840 h1         1 F8W       0.026950
     66 H16         -7.1570     0.0450     1.2440 h1         1 F8W       0.026950
     67 H17         -7.1900    -2.3440     0.3900 hc         1 F8W       0.049200
     68 H18         -6.6670    -1.7530    -1.1770 hc         1 F8W       0.049200
     69 H19         -4.6090    -0.7810    -0.0870 hc         1 F8W       0.036700
     70 H20         -5.1570    -1.4020     1.4610 hc         1 F8W       0.036700
     71 H21         -5.1310    -3.7340     0.4960 h1         1 F8W       0.049200
     72 H22         -4.4600    -3.0850    -0.9900 h1         1 F8W       0.049200
     73 H23         -2.7850    -2.1220     0.9970 hn         1 F8W       0.294500
     74 H24         -1.1450    -3.0790     2.1210 hc         1 F8W       0.043700
     75 H25         -1.0540    -4.8300     2.2070 hc         1 F8W       0.043700
     76 H27         -0.1890    -2.1110     0.0580 ho         1 F8W       0.338000
     77 H28          1.1710    -2.9130     1.9990 hc         1 F8W       0.043700
     78 H29          1.4730    -4.6370     1.9640 hc         1 F8W       0.043700
     79 H30          2.7610    -1.7310     1.2280 hn         1 F8W       0.294500
     80 H31          4.8520    -2.9550    -0.4410 h1         1 F8W       0.049200
     81 H32          4.0820    -1.5010    -1.0490 h1         1 F8W       0.049200
     82 H33          4.7510    -0.2810     1.0360 hc         1 F8W       0.036700
     83 H34          5.5170    -1.7410     1.6370 hc         1 F8W       0.036700
     84 H35          7.0730    -1.7360    -0.3240 hc         1 F8W       0.049200
     85 H36          6.2950    -0.2890    -0.9390 hc         1 F8W       0.049200
     86 H37          6.9440     0.9340     1.1570 h1         1 F8W       0.026950
     87 H38          7.7420    -0.5160     1.7390 h1         1 F8W       0.026950
     88 H39          8.4680     0.8240    -0.7410 hn         1 F8W       0.348300
     89 H41          9.1340     2.1180     1.2060 h1         1 F8W       0.028450
     90 H42          9.8600     0.6390     1.8100 h1         1 F8W       0.028450
     91 H43         11.3870     0.5460    -0.1380 hc         1 F8W       0.052700
     92 H44         10.6300     1.9770    -0.8260 hc         1 F8W       0.052700
     93 H45         11.3130     3.3070     1.1740 h1         1 F8W       0.052200
     94 H46         12.0800     1.8900     1.8620 h1         1 F8W       0.052200
     95 H47         13.0200     3.5580    -0.3350 hn         1 F8W       0.313500
     96 H48         16.7060     1.3920     0.6020 ha         1 F8W       0.163000
     97 H49         18.9690     1.5260     0.0590 ho         1 F8W       0.440500
     98 H50         19.3340     3.2530    -2.5710 ho         1 F8W       0.442000
     99 H51         16.0380     4.1570    -3.4320 ha         1 F8W       0.142000
    100 H52         14.1020     3.4760    -2.1040 ha         1 F8W       0.135000
@<TRIPOS>BOND
     1     1     2 ar  
     2     1     8 ar  
     3     1    52 1   
     4     2     3 1   
     5     2     4 ar  
     6     3    53 1   
     7     4     5 1   
     8     4     6 ar  
     9     5    54 1   
    10     6     7 ar  
    11     6    55 1   
    12     7     8 ar  
    13     7    56 1   
    14     8     9 1   
    15     9    10 2   
    16     9    11 1   
    17    11    12 1   
    18    11    57 1   
    19    12    13 1   
    20    12    58 1   
    21    12    59 1   
    22    13    14 1   
    23    13    60 1   
    24    13    61 1   
    25    14    15 1   
    26    14    62 1   
    27    14    63 1   
    28    15    16 1   
    29    15    64 1   
    30    16    17 1   
    31    16    65 1   
    32    16    66 1   
    33    17    18 1   
    34    17    67 1   
    35    17    68 1   
    36    18    19 1   
    37    18    69 1   
    38    18    70 1   
    39    19    20 1   
    40    19    71 1   
    41    19    72 1   
    42    20    21 1   
    43    20    73 1   
    44    21    22 2   
    45    21    23 1   
    46    23    24 1   
    47    23    74 1   
    48    23    75 1   
    49    24    25 1   
    50    24    28 1   
    51    24    29 1   
    52    25    26 1   
    53    25    27 1   
    54    28    76 1   
    55    29    30 1   
    56    29    77 1   
    57    29    78 1   
    58    30    31 2   
    59    30    32 1   
    60    32    33 1   
    61    32    79 1   
    62    33    34 1   
    63    33    80 1   
    64    33    81 1   
    65    34    35 1   
    66    34    82 1   
    67    34    83 1   
    68    35    36 1   
    69    35    84 1   
    70    35    85 1   
    71    36    37 1   
    72    36    86 1   
    73    36    87 1   
    74    37    38 1   
    75    37    88 1   
    76    38    39 1   
    77    38    89 1   
    78    38    90 1   
    79    39    40 1   
    80    39    91 1   
    81    39    92 1   
    82    40    41 1   
    83    40    93 1   
    84    40    94 1   
    85    41    42 1   
    86    41    95 1   
    87    42    43 2   
    88    42    44 1   
    89    44    45 ar  
    90    44    51 ar  
    91    45    46 ar  
    92    45    96 1   
    93    46    47 1   
    94    46    48 ar  
    95    47    97 1   
    96    48    49 1   
    97    48    50 ar  
    98    49    98 1   
    99    50    51 ar  
   100    50    99 1   
   101    51   100 1   
@<TRIPOS>SUBSTRUCTURE
     1 F8W         1 TEMP              0 ****  ****    0 ROOT
