@<TRIPOS>MOLECULE
F8X
   23    23     1     0     0
SMALL
No Charge or Current Charge


@<TRIPOS>ATOM
      1 N2         -50.7030    78.4310   128.7350 n8         1 F8X      -1.034200
      2 C2         -50.7090    79.9290   128.5310 c6         1 F8X       0.105500
      3 C3         -49.3890    80.5600   129.0800 c6         1 F8X       0.103300
      4 C4         -49.3590    82.1010   128.8240 c6         1 F8X       0.119300
      5 C5         -49.8300    82.4600   127.3750 c6         1 F8X       0.026300
      6 C1         -50.9220    80.3250   127.0210 c6         1 F8X       0.394300
      7 C6         -48.8990    83.5670   126.7660 c          1 F8X       0.728000
      8 O5         -49.9170    81.2470   126.5610 os         1 F8X      -0.439000
      9 O6A        -48.0570    83.1970   125.9550 o          1 F8X      -0.709000
     10 O6B        -49.4080    84.6750   126.6380 o          1 F8X      -0.709000
     11 O4         -50.1740    82.7560   129.8090 oh         1 F8X      -0.728000
     12 O3         -49.2230    80.2790   130.4900 oh         1 F8X      -0.694000
     13 HN21       -50.1080    78.2550   129.5580 hn         1 F8X       0.408500
     14 HN22       -51.6300    78.1410   129.0790 hn         1 F8X       0.408500
     15 H2         -51.5460    80.3390   129.1170 h1         1 F8X       0.059700
     16 H3         -48.5540    80.1150   128.5150 h1         1 F8X       0.065700
     17 H4         -48.3130    82.4270   128.9380 h1         1 F8X       0.064700
     18 H5         -50.8390    82.8970   127.4250 h1         1 F8X       0.044700
     19 H1         -51.9310    80.7400   126.8690 h2         1 F8X       0.049700
     20 HO4        -50.1570    82.1280   130.5730 ho         1 F8X       0.487000
     21 HO3        -48.2560    80.2550   130.6680 ho         1 F8X       0.441000
     22 O1         -50.7570    79.1310   126.2850 oh         1 F8X      -0.669000
     23 HO1        -50.6540    78.5100   127.0600 ho         1 F8X       0.476000
@<TRIPOS>BOND
     1     1     2 1   
     2     1    13 1   
     3     1    14 1   
     4     2     3 1   
     5     2     6 1   
     6     2    15 1   
     7     3     4 1   
     8     3    12 1   
     9     3    16 1   
    10     4     5 1   
    11     4    11 1   
    12     4    17 1   
    13     5     7 1   
    14     5     8 1   
    15     5    18 1   
    16     6     8 1   
    17     6    19 1   
    18     6    22 1   
    19     7     9 1   
    20     7    10 1   
    21    11    20 1   
    22    12    21 1   
    23    22    23 1   
@<TRIPOS>SUBSTRUCTURE
     1 F8X         1 TEMP              0 ****  ****    0 ROOT
