@<TRIPOS>MOLECULE
F8X
   23    23     1     0     0
SMALL
bcc


@<TRIPOS>ATOM
      1 N2         -50.2520    78.4420   128.4510 n8         1 F8X      -0.923800
      2 C2         -50.6080    79.8420   128.6430 c6         1 F8X       0.105500
      3 C3         -49.4610    80.7110   129.1480 c6         1 F8X       0.080100
      4 C4         -49.7090    82.1810   128.8290 c6         1 F8X       0.096100
      5 C5         -49.8180    82.3540   127.3010 c6         1 F8X       0.003100
      6 C1         -51.1370    80.4210   127.2990 c6         1 F8X       0.347900
      7 C6         -48.5440    82.9960   126.6950 c          1 F8X       0.938600
      8 O5         -50.1060    81.1330   126.6540 os         1 F8X      -0.392600
      9 O6A        -47.9480    82.3800   125.7990 o          1 F8X      -0.814300
     10 O6B        -48.2610    84.1110   127.1780 o          1 F8X      -0.814300
     11 O4         -50.9040    82.6380   129.4380 oh         1 F8X      -0.605800
     12 O3         -49.3260    80.4890   130.5370 oh         1 F8X      -0.631800
     13 HN21       -49.2660    78.3240   128.2590 hn         1 F8X       0.353300
     14 HN22       -50.4710    77.8860   129.2650 hn         1 F8X       0.353300
     15 H2         -51.4290    79.8790   129.3630 h1         1 F8X       0.059700
     16 H3         -48.5420    80.4130   128.6210 h1         1 F8X       0.065700
     17 H4         -48.8600    82.7700   129.1970 h1         1 F8X       0.064700
     18 H5         -50.6410    83.0660   127.1210 h1         1 F8X       0.044700
     19 H1         -51.9730    81.1090   127.4970 h2         1 F8X       0.049700
     20 HO4        -50.8390    82.4470   130.3800 ho         1 F8X       0.388000
     21 HO3        -48.4910    80.8700   130.8270 ho         1 F8X       0.402000
     22 O1         -51.5650    79.4060   126.4810 oh         1 F8X      -0.606800
     23 HO1        -51.1830    78.5960   126.8900 ho         1 F8X       0.437000
@<TRIPOS>BOND
     1     1     2 1   
     2     1    13 1   
     3     1    14 1   
     4     2     3 1   
     5     2     6 1   
     6     2    15 1   
     7     3     4 1   
     8     3    12 1   
     9     3    16 1   
    10     4     5 1   
    11     4    11 1   
    12     4    17 1   
    13     5     7 1   
    14     5     8 1   
    15     5    18 1   
    16     6     8 1   
    17     6    19 1   
    18     6    22 1   
    19     7     9 1   
    20     7    10 1   
    21    11    20 1   
    22    12    21 1   
    23    22    23 1   
@<TRIPOS>SUBSTRUCTURE
     1 F8X         1 TEMP              0 ****  ****    0 ROOT
