@<TRIPOS>MOLECULE
F8Y
   44    46     1     0     0
SMALL
No Charge or Current Charge


@<TRIPOS>ATOM
      1 C4          -4.6760    -0.9630    -0.4190 ca         1 F8Y       0.161500
      2 C14          2.8570     3.0370    -0.4590 c3         1 F8Y       0.221800
      3 C5          -3.3270    -0.5770    -0.4160 ca         1 F8Y      -0.183000
      4 C6          -2.9610     0.7150    -0.0040 ca         1 F8Y       0.344000
      5 C11          4.2770     0.8740    -0.5560 c6         1 F8Y       0.146500
      6 C7          -0.4040     0.5170     0.1440 ca         1 F8Y       0.403900
      7 C8           1.8690     0.7630     0.0930 ca         1 F8Y       0.392900
      8 C9           2.0280    -0.5830     0.5030 ca         1 F8Y      -0.225000
      9 C10          0.8420    -1.3390     0.6260 ca         1 F8Y       0.132900
     10 C12          4.5050    -0.5090     0.1300 c          1 F8Y       0.569000
     11 C13          4.3370     0.6830    -2.0970 c3         1 F8Y      -0.118100
     12 N1          -1.6320     1.1460     0.0020 nu         1 F8Y      -0.927900
     13 N2           0.6500     1.3150    -0.0580 nb         1 F8Y      -0.303000
     14 C3          -5.6840    -0.0630    -0.0190 ca         1 F8Y       0.030100
     15 N3          -0.3740    -0.7840     0.4710 nb         1 F8Y      -0.242000
     16 C1          -3.9580     1.6220     0.3790 ca         1 F8Y      -0.183000
     17 C2          -5.3080     1.2380     0.3780 ca         1 F8Y       0.161500
     18 F1          -5.0040    -2.2130    -0.8190 f          1 F8Y      -0.170500
     19 O1          -7.0070    -0.4430    -0.0230 oh         1 F8Y      -0.509100
     20 F2          -6.2470     2.1330     0.7620 f          1 F8Y      -0.170500
     21 N4           2.9940     1.5730    -0.1990 nh         1 F8Y      -0.761300
     22 N5           3.3450    -1.1950     0.5690 n          1 F8Y      -0.192400
     23 O2           5.6390    -0.9580     0.2860 o          1 F8Y      -0.531000
     24 C15          4.1240     3.8840    -0.2280 c3         1 F8Y      -0.107100
     25 C16          3.5170    -2.5010     1.2540 c3         1 F8Y       0.184100
     26 C17          3.4330    -3.6460     0.3330 c1         1 F8Y      -0.181100
     27 C18          3.3490    -4.5700    -0.4460 c1         1 F8Y      -0.206000
     28 H1           2.5160     3.1950    -1.4910 h1         1 F8Y       0.055700
     29 H2           2.0830     3.4510     0.2020 h1         1 F8Y       0.055700
     30 H3          -2.5790    -1.2850    -0.7530 ha         1 F8Y       0.155000
     31 H4           5.1460     1.4710    -0.2430 h1         1 F8Y       0.097700
     32 H5           0.8490    -2.4020     0.8590 h4         1 F8Y       0.034100
     33 H6           3.5110     0.0540    -2.4510 hc         1 F8Y       0.054367
     34 H7           4.2780     1.6430    -2.6230 hc         1 F8Y       0.054367
     35 H8           5.2760     0.2010    -2.3980 hc         1 F8Y       0.054367
     36 H9          -1.5320     2.1590    -0.0340 hn         1 F8Y       0.512000
     37 H10         -3.6930     2.6280     0.6900 ha         1 F8Y       0.155000
     38 H11         -7.0690    -1.3750    -0.3300 ho         1 F8Y       0.477000
     39 H12          3.8880     4.9490    -0.3400 hc         1 F8Y       0.045367
     40 H13          4.5170     3.7260     0.7840 hc         1 F8Y       0.045367
     41 H14          4.9060     3.6370    -0.9560 hc         1 F8Y       0.045367
     42 H15          4.4850    -2.5320     1.7710 h1         1 F8Y       0.081700
     43 H16          2.7520    -2.6080     2.0320 h1         1 F8Y       0.081700
     44 H17          3.2720    -5.3790    -1.1450 ha         1 F8Y       0.258000
@<TRIPOS>BOND
     1     1     3 ar  
     2     1    14 ar  
     3     1    18 1   
     4     2    21 1   
     5     2    24 1   
     6     2    28 1   
     7     2    29 1   
     8     3     4 ar  
     9     3    30 1   
    10     4    12 1   
    11     4    16 ar  
    12     5    10 1   
    13     5    11 1   
    14     5    21 1   
    15     5    31 1   
    16     6    12 1   
    17     6    13 ar  
    18     6    15 ar  
    19     7     8 ar  
    20     7    13 ar  
    21     7    21 1   
    22     8     9 ar  
    23     8    22 1   
    24     9    15 ar  
    25     9    32 1   
    26    10    22 1   
    27    10    23 2   
    28    11    33 1   
    29    11    34 1   
    30    11    35 1   
    31    12    36 1   
    32    14    17 ar  
    33    14    19 1   
    34    16    17 ar  
    35    16    37 1   
    36    17    20 1   
    37    19    38 1   
    38    22    25 1   
    39    24    39 1   
    40    24    40 1   
    41    24    41 1   
    42    25    26 1   
    43    25    42 1   
    44    25    43 1   
    45    26    27 3   
    46    27    44 1   
@<TRIPOS>SUBSTRUCTURE
     1 F8Y         1 TEMP              0 ****  ****    0 ROOT
