@<TRIPOS>MOLECULE
F8Y
   44    46     1     0     0
SMALL
bcc


@<TRIPOS>ATOM
      1 C4          -4.5710    -0.9890     0.0780 ca         1 F8Y       0.126400
      2 C14          2.8410     2.9720    -0.3010 c3         1 F8Y       0.221800
      3 C5          -3.2320    -0.6560     0.0650 ca         1 F8Y      -0.201000
      4 C6          -2.8730     0.6890    -0.0170 ca         1 F8Y       0.205600
      5 C11          4.2040     0.8820    -0.5170 c6         1 F8Y       0.146500
      6 C7          -0.3740     0.5060     0.0390 ca         1 F8Y       0.929900
      7 C8           1.8840     0.7730     0.0440 ca         1 F8Y       0.721200
      8 C9           2.0330    -0.6160     0.2820 ca         1 F8Y      -0.263000
      9 C10          0.8760    -1.3500     0.3150 ca         1 F8Y       0.461200
     10 C12          4.4260    -0.4520     0.1700 c          1 F8Y       0.711500
     11 C13          4.2340     0.6860    -2.0340 c3         1 F8Y      -0.118100
     12 N1          -1.5710     1.1600    -0.0470 nu         1 F8Y      -0.734300
     13 N2           0.6850     1.3140    -0.0570 nb         1 F8Y      -0.829000
     14 C3          -5.6050    -0.0690     0.0150 ca         1 F8Y       0.030100
     15 N3          -0.3390    -0.8040     0.1900 nb         1 F8Y      -0.768000
     16 C1          -3.8890     1.6510    -0.0810 ca         1 F8Y      -0.201000
     17 C2          -5.2070     1.2610    -0.0650 ca         1 F8Y       0.126400
     18 F1          -4.9110    -2.2880     0.1560 f          1 F8Y      -0.135400
     19 O1          -6.9170    -0.3710     0.0280 oh         1 F8Y      -0.470100
     20 F2          -6.1670     2.1930    -0.1250 f          1 F8Y      -0.135400
     21 N4           2.9910     1.5400    -0.0570 nh         1 F8Y      -0.761300
     22 N5           3.3100    -1.1350     0.5290 n          1 F8Y      -0.352000
     23 O2           5.5470    -0.8900     0.3370 o          1 F8Y      -0.606500
     24 C15          4.1040     3.7650    -0.0160 c3         1 F8Y      -0.107100
     25 C16          3.4450    -2.4490     1.1340 c3         1 F8Y       0.184100
     26 C17          3.3820    -3.5240     0.1480 c1         1 F8Y      -0.181100
     27 C18          3.3240    -4.4060    -0.6650 c1         1 F8Y      -0.118500
     28 H1           2.5100     3.1550    -1.3290 h1         1 F8Y       0.055700
     29 H2           2.0420     3.3270     0.3480 h1         1 F8Y       0.055700
     30 H3          -2.4870    -1.4340     0.1150 ha         1 F8Y       0.173000
     31 H4           5.0530     1.4970    -0.2220 h1         1 F8Y       0.097700
     32 H5           0.8960    -2.4240     0.4570 h4         1 F8Y       0.034100
     33 H6           3.4230     0.0380    -2.3720 hc         1 F8Y       0.054367
     34 H7           4.1350     1.6450    -2.5430 hc         1 F8Y       0.054367
     35 H8           5.1800     0.2420    -2.3430 hc         1 F8Y       0.054367
     36 H9          -1.4720     2.1590    -0.1460 hn         1 F8Y       0.456800
     37 H10         -3.6550     2.7060    -0.1440 ha         1 F8Y       0.173000
     38 H11         -7.0460    -1.3260     0.0610 ho         1 F8Y       0.438000
     39 H12          3.8610     4.8270    -0.0480 hc         1 F8Y       0.045367
     40 H13          4.5040     3.5430     0.9730 hc         1 F8Y       0.045367
     41 H14          4.8880     3.5950    -0.7540 hc         1 F8Y       0.045367
     42 H15          4.3940    -2.4900     1.6670 h1         1 F8Y       0.081700
     43 H16          2.6600    -2.5750     1.8820 h1         1 F8Y       0.081700
     44 H17          3.2760    -5.1910    -1.3860 ha         1 F8Y       0.170500
@<TRIPOS>BOND
     1     1     3 ar  
     2     1    14 ar  
     3     1    18 1   
     4     2    21 1   
     5     2    24 1   
     6     2    28 1   
     7     2    29 1   
     8     3     4 ar  
     9     3    30 1   
    10     4    12 1   
    11     4    16 ar  
    12     5    10 1   
    13     5    11 1   
    14     5    21 1   
    15     5    31 1   
    16     6    12 1   
    17     6    13 ar  
    18     6    15 ar  
    19     7     8 ar  
    20     7    13 ar  
    21     7    21 1   
    22     8     9 ar  
    23     8    22 1   
    24     9    15 ar  
    25     9    32 1   
    26    10    22 1   
    27    10    23 2   
    28    11    33 1   
    29    11    34 1   
    30    11    35 1   
    31    12    36 1   
    32    14    17 ar  
    33    14    19 1   
    34    16    17 ar  
    35    16    37 1   
    36    17    20 1   
    37    19    38 1   
    38    22    25 1   
    39    24    39 1   
    40    24    40 1   
    41    24    41 1   
    42    25    26 1   
    43    25    42 1   
    44    25    43 1   
    45    26    27 3   
    46    27    44 1   
@<TRIPOS>SUBSTRUCTURE
     1 F8Y         1 TEMP              0 ****  ****    0 ROOT
