@<TRIPOS>MOLECULE
F8Z
   81    85     1     0     0
SMALL
bcc


@<TRIPOS>ATOM
      1 CBQ         10.8320    -0.5630    -0.4810 c3         1 F8Z       0.125700
      2 OBP          9.7780    -0.9160     0.3910 os         1 F8Z      -0.315900
      3 CBM          8.5910    -0.2920     0.2430 ca         1 F8Z       0.124100
      4 CBN          7.5690    -0.6830     1.1100 ca         1 F8Z      -0.169500
      5 CBO          6.3160    -0.1030     1.0410 ca         1 F8Z      -0.114000
      6 CBL          8.3310     0.7000    -0.6960 ca         1 F8Z      -0.169500
      7 CBK          7.0630     1.2640    -0.7750 ca         1 F8Z      -0.114000
      8 CBJ          6.0430     0.8740     0.0830 ca         1 F8Z       0.036600
      9 NBH          4.7980     1.5160    -0.0140 ns         1 F8Z      -0.490100
     10 CBG          3.5860     0.8900     0.0860 c          1 F8Z       0.795100
     11 OBI          3.4580    -0.2930     0.3480 o          1 F8Z      -0.603100
     12 NAS          2.5340     1.7390    -0.1330 ns         1 F8Z      -0.492100
     13 CAK          1.1770     1.4120    -0.0460 ca         1 F8Z       0.065600
     14 CAL          0.2950     2.4150     0.3430 ca         1 F8Z      -0.135000
     15 CAJ          0.6640     0.1530    -0.3670 ca         1 F8Z      -0.115000
     16 CAI         -0.6980    -0.0750    -0.2880 ca         1 F8Z      -0.135000
     17 CAA         -1.5750     0.9380     0.0810 ca         1 F8Z       0.107100
     18 OAH         -2.9090     0.6980     0.1620 os         1 F8Z      -0.322900
     19 CAB         -1.0790     2.2000     0.3790 ca         1 F8Z      -0.136600
     20 CAC         -1.9410     3.3150     0.8960 c          1 F8Z       0.735100
     21 OAT         -1.6200     3.8180     1.9630 o          1 F8Z      -0.611500
     22 NAD         -3.0040     3.7100     0.1650 n          1 F8Z      -0.463800
     23 CAU         -3.8280     4.8630     0.5760 c3         1 F8Z       0.126700
     24 CAV         -4.2460     4.9020     2.0410 c3         1 F8Z      -0.087100
     25 CAW         -3.2510     6.1800     0.0760 c3         1 F8Z       0.120400
     26 OAX         -2.0610     6.5100     0.7450 oh         1 F8Z      -0.571800
     27 CAE         -3.2830     3.2150    -1.1800 c3         1 F8Z       0.114000
     28 CAF         -4.2910     2.0530    -1.2910 c3         1 F8Z      -0.090700
     29 CAN         -5.5180     2.2360    -0.4060 c3         1 F8Z      -0.082100
     30 CAG         -3.5930     0.7120    -1.0950 c3         1 F8Z       0.153100
     31 CAM         -4.5180    -0.4940    -1.1380 c3         1 F8Z       0.170800
     32 NAO         -3.7750    -1.7370    -1.1950 n3         1 F8Z      -0.727600
     33 CAP         -3.2670    -2.0240    -2.5200 c3         1 F8Z       0.150100
     34 CAQ         -4.5110    -2.8610    -0.6500 c3         1 F8Z       0.225100
     35 CAR         -3.6180    -4.0450    -0.3870 ca         1 F8Z      -0.089300
     36 CAY         -2.4720    -3.8670     0.4060 ca         1 F8Z      -0.091000
     37 CAZ         -1.6850    -4.9660     0.6300 ca         1 F8Z       0.048100
     38 OBD         -0.5530    -5.0630     1.3720 os         1 F8Z      -0.315900
     39 CBE         -0.0170    -6.3500     1.0990 c5         1 F8Z       0.325200
     40 OBF         -1.0570    -7.1120     0.5040 os         1 F8Z      -0.322900
     41 CBA         -1.9920    -6.2130     0.1020 ca         1 F8Z       0.053100
     42 CBB         -3.1040    -6.4120    -0.6740 ca         1 F8Z      -0.119000
     43 CBC         -3.9150    -5.2930    -0.9110 ca         1 F8Z      -0.129000
     44 H1          11.1230     0.4850    -0.3710 h1         1 F8Z       0.039700
     45 H2          11.6800    -1.1890    -0.2120 h1         1 F8Z       0.039700
     46 H3          10.5760    -0.7480    -1.5280 h1         1 F8Z       0.039700
     47 H4           7.7640    -1.4440     1.8560 ha         1 F8Z       0.142000
     48 H5           5.5590    -0.4120     1.7460 ha         1 F8Z       0.142000
     49 H6           9.0900     1.0440    -1.3840 ha         1 F8Z       0.142000
     50 H7           6.8770     2.0250    -1.5230 ha         1 F8Z       0.142000
     51 H8           4.8160     2.4390    -0.4180 hn         1 F8Z       0.310500
     52 H9           2.7340     2.7270    -0.1790 hn         1 F8Z       0.313500
     53 H10          0.6850     3.3900     0.6130 ha         1 F8Z       0.144000
     54 H11          1.3130    -0.6480    -0.6830 ha         1 F8Z       0.162000
     55 H12         -1.1000    -1.0530    -0.5260 ha         1 F8Z       0.159000
     56 H13         -4.7530     4.7520     0.0110 h1         1 F8Z       0.039700
     57 H14         -4.5830     3.9210     2.3790 hc         1 F8Z       0.050367
     58 H15         -3.4600     5.2420     2.7050 hc         1 F8Z       0.050367
     59 H16         -5.0900     5.5870     2.1320 hc         1 F8Z       0.050367
     60 H17         -3.0910     6.1010    -1.0080 h1         1 F8Z       0.013700
     61 H18         -4.0260     6.9450     0.2210 h1         1 F8Z       0.013700
     62 H19         -1.7280     7.3260     0.3600 ho         1 F8Z       0.397000
     63 H20         -3.6760     4.0580    -1.7510 h1         1 F8Z       0.045200
     64 H21         -2.3510     2.9430    -1.6800 h1         1 F8Z       0.045200
     65 H22         -4.6250     2.0640    -2.3350 hc         1 F8Z       0.047700
     66 H23         -5.9980     3.1960    -0.5930 hc         1 F8Z       0.039367
     67 H24         -6.2670     1.4710    -0.6040 hc         1 F8Z       0.039367
     68 H25         -5.2660     2.1880     0.6540 hc         1 F8Z       0.039367
     69 H26         -2.8530     0.6120    -1.8980 h1         1 F8Z       0.043700
     70 H27         -5.1300    -0.4950    -0.2330 h1         1 F8Z       0.044200
     71 H28         -5.2150    -0.3810    -1.9850 h1         1 F8Z       0.044200
     72 H30         -2.6570    -1.1990    -2.8880 h1         1 F8Z       0.032033
     73 H31         -2.6280    -2.9050    -2.4950 h1         1 F8Z       0.032033
     74 H32         -4.0670    -2.2030    -3.2560 h1         1 F8Z       0.032033
     75 H33         -4.9610    -2.5400     0.2940 h1         1 F8Z       0.039700
     76 H34         -5.3470    -3.1740    -1.2980 h1         1 F8Z       0.039700
     77 H35         -2.2270    -2.8950     0.8150 ha         1 F8Z       0.169000
     78 H36          0.8250    -6.2610     0.4030 h2         1 F8Z       0.064700
     79 H37          0.3030    -6.8210     2.0270 h2         1 F8Z       0.064700
     80 H38         -3.3460    -7.3810    -1.0890 ha         1 F8Z       0.150000
     81 H39         -4.7940    -5.4100    -1.5330 ha         1 F8Z       0.132000
@<TRIPOS>BOND
     1     1     2 1   
     2     1    44 1   
     3     1    45 1   
     4     1    46 1   
     5     2     3 1   
     6     3     4 ar  
     7     3     6 ar  
     8     4     5 ar  
     9     4    47 1   
    10     5     8 ar  
    11     5    48 1   
    12     6     7 ar  
    13     6    49 1   
    14     7     8 ar  
    15     7    50 1   
    16     8     9 1   
    17     9    10 1   
    18     9    51 1   
    19    10    11 2   
    20    10    12 1   
    21    12    13 1   
    22    12    52 1   
    23    13    14 ar  
    24    13    15 ar  
    25    14    19 ar  
    26    14    53 1   
    27    15    16 ar  
    28    15    54 1   
    29    16    17 ar  
    30    16    55 1   
    31    17    18 1   
    32    17    19 ar  
    33    18    30 1   
    34    19    20 1   
    35    20    21 2   
    36    20    22 1   
    37    22    23 1   
    38    22    27 1   
    39    23    24 1   
    40    23    25 1   
    41    23    56 1   
    42    24    57 1   
    43    24    58 1   
    44    24    59 1   
    45    25    26 1   
    46    25    60 1   
    47    25    61 1   
    48    26    62 1   
    49    27    28 1   
    50    27    63 1   
    51    27    64 1   
    52    28    29 1   
    53    28    30 1   
    54    28    65 1   
    55    29    66 1   
    56    29    67 1   
    57    29    68 1   
    58    30    31 1   
    59    30    69 1   
    60    31    32 1   
    61    31    70 1   
    62    31    71 1   
    63    32    33 1   
    64    32    34 1   
    65    33    72 1   
    66    33    73 1   
    67    33    74 1   
    68    34    35 1   
    69    34    75 1   
    70    34    76 1   
    71    35    36 ar  
    72    35    43 ar  
    73    36    37 ar  
    74    36    77 1   
    75    37    38 1   
    76    37    41 ar  
    77    38    39 1   
    78    39    40 1   
    79    39    78 1   
    80    39    79 1   
    81    40    41 1   
    82    41    42 ar  
    83    42    43 ar  
    84    42    80 1   
    85    43    81 1   
@<TRIPOS>SUBSTRUCTURE
     1 F8Z         1 TEMP              0 ****  ****    0 ROOT
