@<TRIPOS>MOLECULE
F8Z
   81    85     1     0     0
SMALL
No Charge or Current Charge


@<TRIPOS>ATOM
      1 CBQ         11.5290     0.6880    -0.3020 c3         1 F8Z       0.148900
      2 OBP         10.4320    -0.2110    -0.5470 os         1 F8Z      -0.339100
      3 CBM          9.1160     0.1750    -0.3940 ca         1 F8Z       0.124100
      4 CBN          8.1170    -0.7740    -0.6570 ca         1 F8Z      -0.151500
      5 CBO          6.7570    -0.4430    -0.5190 ca         1 F8Z      -0.096000
      6 CBL          8.7440     1.4740     0.0140 ca         1 F8Z      -0.151500
      7 CBK          7.3840     1.8060     0.1520 ca         1 F8Z      -0.096000
      8 CBJ          6.3790     0.8560    -0.1120 ca         1 F8Z      -0.056000
      9 NBH          5.0250     1.2690     0.0520 ns         1 F8Z      -0.164000
     10 CBG          3.8150     0.6110    -0.1280 c          1 F8Z       0.661100
     11 OBI          3.7080    -0.5520    -0.4990 o          1 F8Z      -0.603100
     12 NAS          2.7410     1.4420     0.1620 ns         1 F8Z      -0.166000
     13 CAK          1.3330     1.2340     0.1390 ca         1 F8Z      -0.027000
     14 CAL          0.5090     2.3360     0.4380 ca         1 F8Z      -0.117000
     15 CAJ          0.7310    -0.0080    -0.1520 ca         1 F8Z      -0.097000
     16 CAI         -0.6670    -0.1310    -0.1380 ca         1 F8Z      -0.117000
     17 CAA         -1.4790     0.9780     0.1530 ca         1 F8Z       0.107100
     18 OAH         -2.8350     0.8020     0.1860 os         1 F8Z      -0.346100
     19 CAB         -0.9020     2.2330     0.4270 ca         1 F8Z      -0.136600
     20 CAC         -1.7140     3.4580     0.7880 c          1 F8Z       0.592600
     21 OAT         -1.3470     4.1220     1.7490 o          1 F8Z      -0.536000
     22 NAD         -2.8960     3.7950     0.0590 n          1 F8Z      -0.396800
     23 CAU         -3.7050     5.0080     0.4140 c3         1 F8Z       0.126700
     24 CAV         -4.2060     5.0680     1.8780 c3         1 F8Z      -0.087100
     25 CAW         -3.1550     6.3560    -0.1470 c3         1 F8Z       0.143600
     26 OAX         -1.9990     6.8270     0.5600 oh         1 F8Z      -0.634000
     27 CAE         -3.1620     3.2240    -1.2960 c3         1 F8Z       0.114000
     28 CAF         -4.1940     2.0540    -1.3630 c3         1 F8Z      -0.090700
     29 CAN         -5.4810     2.3160    -0.5330 c3         1 F8Z      -0.082100
     30 CAG         -3.5230     0.6840    -1.0690 c3         1 F8Z       0.176300
     31 CAM         -4.4920    -0.5380    -1.0060 c3         1 F8Z       0.170800
     32 NAO         -3.8520    -1.8870    -0.9910 n3         1 F8Z      -0.727600
     33 CAP         -3.1440    -2.2180    -2.2540 c3         1 F8Z       0.150100
     34 CAQ         -4.8020    -2.9500    -0.5810 c3         1 F8Z       0.225100
     35 CAR         -4.1230    -4.2860    -0.2900 ca         1 F8Z      -0.089300
     36 CAY         -3.1310    -4.3650     0.7150 ca         1 F8Z      -0.073000
     37 CAZ         -2.5240    -5.6050     0.9540 ca         1 F8Z       0.048100
     38 OBD         -1.5650    -5.8550     1.8810 os         1 F8Z      -0.339100
     39 CBE         -1.2620    -7.2790     1.6580 c5         1 F8Z       0.371600
     40 OBF         -2.1760    -7.8200     0.6390 os         1 F8Z      -0.346100
     41 CBA         -2.8720    -6.7220     0.2480 ca         1 F8Z       0.053100
     42 CBB         -3.8510    -6.6850    -0.7510 ca         1 F8Z      -0.101000
     43 CBC         -4.4790    -5.4490    -1.0200 ca         1 F8Z      -0.111000
     44 H1          11.5220     1.0380     0.7380 h1         1 F8Z       0.039700
     45 H2          12.4840     0.1800    -0.4840 h1         1 F8Z       0.039700
     46 H3          11.4750     1.5590    -0.9680 h1         1 F8Z       0.039700
     47 H4           8.3990    -1.7760    -0.9710 ha         1 F8Z       0.124000
     48 H5           6.0190    -1.2100    -0.7320 ha         1 F8Z       0.124000
     49 H6           9.4900     2.2340     0.2260 ha         1 F8Z       0.124000
     50 H7           7.1130     2.8110     0.4670 ha         1 F8Z       0.124000
     51 H8           4.9300     2.2280     0.3590 hn         1 F8Z       0.144000
     52 H9           3.0070     2.3760     0.4450 hn         1 F8Z       0.147000
     53 H10          0.9690     3.2950     0.6700 ha         1 F8Z       0.126000
     54 H11          1.3220    -0.8900    -0.3760 ha         1 F8Z       0.144000
     55 H12         -1.1260    -1.0950    -0.3380 ha         1 F8Z       0.141000
     56 H13         -4.6380     4.8890    -0.1480 h1         1 F8Z       0.039700
     57 H14         -4.6060     4.0960     2.1900 hc         1 F8Z       0.050367
     58 H15         -3.4090     5.3540     2.5720 hc         1 F8Z       0.050367
     59 H16         -5.0080     5.8100     1.9720 hc         1 F8Z       0.050367
     60 H17         -2.9160     6.2270    -1.2110 h1         1 F8Z       0.013700
     61 H18         -3.9530     7.1080    -0.0850 h1         1 F8Z       0.013700
     62 H19         -1.7220     7.6670     0.1320 ho         1 F8Z       0.436000
     63 H20         -3.5430     4.0330    -1.9320 h1         1 F8Z       0.045200
     64 H21         -2.2170     2.9080    -1.7560 h1         1 F8Z       0.045200
     65 H22         -4.5150     2.0000    -2.4110 hc         1 F8Z       0.047700
     66 H23         -5.9370     3.2710    -0.8160 hc         1 F8Z       0.039367
     67 H24         -6.2360     1.5430    -0.7160 hc         1 F8Z       0.039367
     68 H25         -5.2640     2.3320     0.5410 hc         1 F8Z       0.039367
     69 H26         -2.8030     0.5060    -1.8770 h1         1 F8Z       0.043700
     70 H27         -5.1040    -0.4190    -0.1010 h1         1 F8Z       0.044200
     71 H28         -5.1800    -0.4740    -1.8600 h1         1 F8Z       0.044200
     72 H30         -2.3700    -1.4770    -2.4870 h1         1 F8Z       0.032033
     73 H31         -2.6440    -3.1930    -2.1820 h1         1 F8Z       0.032033
     74 H32         -3.8480    -2.2570    -3.0970 h1         1 F8Z       0.032033
     75 H33         -5.3290    -2.6440     0.3330 h1         1 F8Z       0.039700
     76 H34         -5.5670    -3.0900    -1.3570 h1         1 F8Z       0.039700
     77 H35         -2.8390    -3.4870     1.2850 ha         1 F8Z       0.151000
     78 H36         -0.2300    -7.3730     1.3000 h2         1 F8Z       0.064700
     79 H37         -1.3860    -7.8330     2.5960 h2         1 F8Z       0.064700
     80 H38         -4.1180    -7.5830    -1.3030 ha         1 F8Z       0.132000
     81 H39         -5.2410    -5.3940    -1.7940 ha         1 F8Z       0.114000
@<TRIPOS>BOND
     1     1     2 1   
     2     1    44 1   
     3     1    45 1   
     4     1    46 1   
     5     2     3 1   
     6     3     4 ar  
     7     3     6 ar  
     8     4     5 ar  
     9     4    47 1   
    10     5     8 ar  
    11     5    48 1   
    12     6     7 ar  
    13     6    49 1   
    14     7     8 ar  
    15     7    50 1   
    16     8     9 1   
    17     9    10 1   
    18     9    51 1   
    19    10    11 2   
    20    10    12 1   
    21    12    13 1   
    22    12    52 1   
    23    13    14 ar  
    24    13    15 ar  
    25    14    19 ar  
    26    14    53 1   
    27    15    16 ar  
    28    15    54 1   
    29    16    17 ar  
    30    16    55 1   
    31    17    18 1   
    32    17    19 ar  
    33    18    30 1   
    34    19    20 1   
    35    20    21 2   
    36    20    22 1   
    37    22    23 1   
    38    22    27 1   
    39    23    24 1   
    40    23    25 1   
    41    23    56 1   
    42    24    57 1   
    43    24    58 1   
    44    24    59 1   
    45    25    26 1   
    46    25    60 1   
    47    25    61 1   
    48    26    62 1   
    49    27    28 1   
    50    27    63 1   
    51    27    64 1   
    52    28    29 1   
    53    28    30 1   
    54    28    65 1   
    55    29    66 1   
    56    29    67 1   
    57    29    68 1   
    58    30    31 1   
    59    30    69 1   
    60    31    32 1   
    61    31    70 1   
    62    31    71 1   
    63    32    33 1   
    64    32    34 1   
    65    33    72 1   
    66    33    73 1   
    67    33    74 1   
    68    34    35 1   
    69    34    75 1   
    70    34    76 1   
    71    35    36 ar  
    72    35    43 ar  
    73    36    37 ar  
    74    36    77 1   
    75    37    38 1   
    76    37    41 ar  
    77    38    39 1   
    78    39    40 1   
    79    39    78 1   
    80    39    79 1   
    81    40    41 1   
    82    41    42 ar  
    83    42    43 ar  
    84    42    80 1   
    85    43    81 1   
@<TRIPOS>SUBSTRUCTURE
     1 F8Z         1 TEMP              0 ****  ****    0 ROOT
