@<TRIPOS>MOLECULE
F90
   21    21     1     0     0
SMALL
abcg2


@<TRIPOS>ATOM
      1 C1          -0.1630    -0.0590     0.6140 ca         1 F90      -0.085300
      2 C2           1.2930    -0.0800     0.9710 c3         1 F90       0.125900
      3 S3           2.2240     0.0840    -0.5830 ss         1 F90      -0.324200
      4 C4           3.9020     0.0390    -0.0020 c2         1 F90       0.658100
      5 N5           4.1420    -0.0390     1.2430 n2         1 F90      -0.852100
      6 N6           4.7900     0.1590    -1.0290 nv         1 F90      -1.062200
      7 C7          -0.8320     1.1490     0.4420 ca         1 F90      -0.084000
      8 C8          -2.1720     1.1790     0.0860 ca         1 F90      -0.105500
      9 C9          -2.8460    -0.0180    -0.1020 ca         1 F90       0.126000
     10 CL10        -4.5210     0.0080    -0.5440 cl         1 F90      -0.202000
     11 C11         -2.2030    -1.2350     0.0600 ca         1 F90      -0.105500
     12 C12         -0.8620    -1.2460     0.4140 ca         1 F90      -0.084000
     13 H2           1.5570     0.7460     1.6290 h1         1 F90       0.086700
     14 H2A          1.5750    -1.0120     1.4570 h1         1 F90       0.086700
     15 HN5          5.1420    -0.0610     1.4250 hn         1 F90       0.381400
     16 HN6          4.4990    -0.1020    -1.9580 hn         1 F90       0.466500
     17 HN6A         5.7520    -0.0670    -0.8300 hn         1 F90       0.466500
     18 H7          -0.3060     2.0840     0.5910 ha         1 F90       0.122500
     19 H8          -2.6810     2.1250    -0.0440 ha         1 F90       0.131000
     20 H11         -2.7360    -2.1640    -0.0880 ha         1 F90       0.131000
     21 H12         -0.3580    -2.1960     0.5430 ha         1 F90       0.122500
@<TRIPOS>BOND
     1     1     2 1   
     2     1     7 ar  
     3     1    12 ar  
     4     2     3 1   
     5     2    13 1   
     6     2    14 1   
     7     3     4 1   
     8     4     5 2   
     9     4     6 1   
    10     5    15 1   
    11     6    16 1   
    12     6    17 1   
    13     7     8 ar  
    14     7    18 1   
    15     8     9 ar  
    16     8    19 1   
    17     9    10 1   
    18     9    11 ar  
    19    11    12 ar  
    20    11    20 1   
    21    12    21 1   
@<TRIPOS>SUBSTRUCTURE
     1 F90         1 TEMP              0 ****  ****    0 ROOT
