@<TRIPOS>MOLECULE
F90
   21    21     1     0     0
SMALL
No Charge or Current Charge


@<TRIPOS>ATOM
      1 C1          -0.1790    -0.0300     0.5680 ca         1 F90      -0.085300
      2 C2           1.3030    -0.0250     0.9130 c3         1 F90       0.125900
      3 S3           2.3270     0.0570    -0.6230 ss         1 F90      -0.324200
      4 C4           3.9720     0.0520     0.0300 c2         1 F90       0.658100
      5 N5           4.2690    -0.0040     1.2500 n2         1 F90      -0.852100
      6 N6           4.9000     0.1130    -0.9350 nv         1 F90      -1.062200
      7 C7          -0.8860     1.1840     0.4550 ca         1 F90      -0.084000
      8 C8          -2.2560     1.1780     0.1330 ca         1 F90      -0.105500
      9 C9          -2.9220    -0.0400    -0.0770 ca         1 F90       0.126000
     10 Cl10        -4.6340    -0.0460    -0.4800 cl         1 F90      -0.202000
     11 C11         -2.2230    -1.2530     0.0320 ca         1 F90      -0.105500
     12 C12         -0.8540    -1.2490     0.3530 ca         1 F90      -0.084000
     13 H2           1.5370     0.8390     1.5480 h1         1 F90       0.086700
     14 H2A          1.5620    -0.9340     1.4710 h1         1 F90       0.086700
     15 HN5          5.2920     0.0480     1.3250 hn         1 F90       0.381400
     16 HN6          4.5030     0.0050    -1.8610 hn         1 F90       0.466500
     17 HN6A         5.7190    -0.4600    -0.7670 hn         1 F90       0.466500
     18 H7          -0.3750     2.1310     0.6140 ha         1 F90       0.122500
     19 H8          -2.7990     2.1160     0.0470 ha         1 F90       0.131000
     20 H11         -2.7420    -2.1940    -0.1330 ha         1 F90       0.131000
     21 H12         -0.3180    -2.1920     0.4330 ha         1 F90       0.122500
@<TRIPOS>BOND
     1     1     2 1   
     2     1     7 ar  
     3     1    12 ar  
     4     2     3 1   
     5     2    13 1   
     6     2    14 1   
     7     3     4 1   
     8     4     5 2   
     9     4     6 1   
    10     5    15 1   
    11     6    16 1   
    12     6    17 1   
    13     7     8 ar  
    14     7    18 1   
    15     8     9 ar  
    16     8    19 1   
    17     9    10 1   
    18     9    11 ar  
    19    11    12 ar  
    20    11    20 1   
    21    12    21 1   
@<TRIPOS>SUBSTRUCTURE
     1 F90         1 TEMP              0 ****  ****    0 ROOT
