@<TRIPOS>MOLECULE
F91
   32    34     1     0     0
SMALL
No Charge or Current Charge


@<TRIPOS>ATOM
      1 C1           2.6810     0.5860    -0.0510 ca         1 F91       0.103100
      2 O2           3.5270     1.6760    -0.1100 os         1 F91      -0.332100
      3 C3           4.9140     1.4610     0.2330 c6         1 F91       0.118600
      4 C4           5.4130     0.1420    -0.3980 c6         1 F91       0.117600
      5 O5           4.5650    -0.9520     0.0140 os         1 F91      -0.329100
      6 C6           3.2010    -0.7290     0.0270 ca         1 F91       0.010100
      7 C7           2.3240    -1.8210     0.1190 ca         1 F91      -0.067000
      8 C8           0.9340    -1.6040     0.1110 ca         1 F91      -0.179000
      9 C9           0.4160    -0.2980     0.0120 ca         1 F91       0.301000
     10 N10         -0.9590    -0.0600    -0.0030 nu         1 F91      -0.933200
     11 C11         -2.0420    -1.0510     0.0690 c3         1 F91       0.242100
     12 C12         -3.3940    -0.3520     0.0190 ca         1 F91      -0.062300
     13 C13          1.2940     0.7940    -0.0690 ca         1 F91      -0.178000
     14 C14         -4.0390     0.0730     1.1950 ca         1 F91      -0.155000
     15 C15         -5.2850     0.7170     1.1040 ca         1 F91       0.333400
     16 N16         -5.9080     0.9560    -0.0740 nb         1 F91      -0.662000
     17 C17         -5.2870     0.5490    -1.2060 ca         1 F91       0.333400
     18 C18         -4.0410    -0.1010    -1.2050 ca         1 F91      -0.155000
     19 H3           5.5130     2.3120    -0.1190 h1         1 F91       0.066200
     20 H3A          5.0060     1.4010     1.3260 h1         1 F91       0.066200
     21 H4           5.3830     0.2260    -1.4940 h1         1 F91       0.064700
     22 H4A          6.4490    -0.0650    -0.0960 h1         1 F91       0.064700
     23 H7           2.7200    -2.8320     0.1870 ha         1 F91       0.125000
     24 H8           0.2670    -2.4580     0.1780 ha         1 F91       0.117000
     25 HN10        -1.2440     0.9180    -0.0760 hn         1 F91       0.462000
     26 H11         -1.9660    -1.7570    -0.7700 h1         1 F91       0.049200
     27 H11A        -1.9650    -1.6290     1.0000 h1         1 F91       0.049200
     28 H13          0.9040     1.8040    -0.1380 ha         1 F91       0.128000
     29 H14         -3.5860    -0.0890     2.1690 ha         1 F91       0.129500
     30 H15         -5.8010     1.0540     2.0030 h4         1 F91       0.019600
     31 H17         -5.8050     0.7530    -2.1430 h4         1 F91       0.019600
     32 H18         -3.5900    -0.4020    -2.1460 ha         1 F91       0.129500
@<TRIPOS>BOND
     1     1     2 1   
     2     1     6 ar  
     3     1    13 ar  
     4     2     3 1   
     5     3     4 1   
     6     3    19 1   
     7     3    20 1   
     8     4     5 1   
     9     4    21 1   
    10     4    22 1   
    11     5     6 1   
    12     6     7 ar  
    13     7     8 ar  
    14     7    23 1   
    15     8     9 ar  
    16     8    24 1   
    17     9    10 1   
    18     9    13 ar  
    19    10    11 1   
    20    10    25 1   
    21    11    12 1   
    22    11    26 1   
    23    11    27 1   
    24    12    14 ar  
    25    12    18 ar  
    26    13    28 1   
    27    14    15 ar  
    28    14    29 1   
    29    15    16 ar  
    30    15    30 1   
    31    16    17 ar  
    32    17    18 ar  
    33    17    31 1   
    34    18    32 1   
@<TRIPOS>SUBSTRUCTURE
     1 F91         1 TEMP              0 ****  ****    0 ROOT
