@<TRIPOS>MOLECULE
F91
   32    34     1     0     0
SMALL
abcg2


@<TRIPOS>ATOM
      1 C1           2.7050     0.6060     0.1190 ca         1 F91       0.103100
      2 O2           3.5600     1.6530     0.1970 os         1 F91      -0.332100
      3 C3           4.9000     1.3000     0.5070 c6         1 F91       0.118600
      4 C4           5.3180     0.0820    -0.2820 c6         1 F91       0.117600
      5 O5           4.4890    -1.0190     0.0460 os         1 F91      -0.329100
      6 C6           3.1610    -0.7150     0.0470 ca         1 F91       0.010100
      7 C7           2.2290    -1.7340    -0.0350 ca         1 F91      -0.067000
      8 C8           0.8660    -1.4700    -0.0450 ca         1 F91      -0.179000
      9 C9           0.4030    -0.1530     0.0240 ca         1 F91       0.301000
     10 N10         -0.9450     0.1690     0.0540 nu         1 F91      -0.933200
     11 C11         -1.9340    -0.8080    -0.3270 c3         1 F91       0.242100
     12 C12         -3.3270    -0.2720    -0.1530 ca         1 F91      -0.062300
     13 C13          1.3460     0.8770     0.1070 ca         1 F91      -0.178000
     14 C14         -3.6780     0.5250     0.9320 ca         1 F91      -0.155000
     15 C15         -4.9900     0.9540     1.0540 ca         1 F91       0.333400
     16 N16         -5.9500     0.6470     0.1870 nb         1 F91      -0.662000
     17 C17         -5.6130    -0.1120    -0.8480 ca         1 F91       0.333400
     18 C18         -4.3280    -0.5900    -1.0620 ca         1 F91      -0.155000
     19 H3           5.5250     2.1550     0.2490 h1         1 F91       0.066200
     20 H3A          5.0010     1.1110     1.5810 h1         1 F91       0.066200
     21 H4           5.2670     0.2900    -1.3570 h1         1 F91       0.064700
     22 H4A          6.3420    -0.1960    -0.0340 h1         1 F91       0.064700
     23 H7           2.5760    -2.7590    -0.0980 ha         1 F91       0.125000
     24 H8           0.1800    -2.3020    -0.1200 ha         1 F91       0.117000
     25 HN10        -1.1430     1.0940    -0.2970 hn         1 F91       0.462000
     26 H11         -1.8050    -1.1680    -1.3570 h1         1 F91       0.049200
     27 H11A        -1.8350    -1.6870     0.3180 h1         1 F91       0.049200
     28 H13          1.0200     1.9090     0.1710 ha         1 F91       0.128000
     29 H14         -2.9460     0.8120     1.6750 ha         1 F91       0.129500
     30 H15         -5.2780     1.5750     1.8950 h4         1 F91       0.019600
     31 H17         -6.4020    -0.3540    -1.5510 h4         1 F91       0.019600
     32 H18         -4.1170    -1.1990    -1.9320 ha         1 F91       0.129500
@<TRIPOS>BOND
     1     1     2 1   
     2     1     6 ar  
     3     1    13 ar  
     4     2     3 1   
     5     3     4 1   
     6     3    19 1   
     7     3    20 1   
     8     4     5 1   
     9     4    21 1   
    10     4    22 1   
    11     5     6 1   
    12     6     7 ar  
    13     7     8 ar  
    14     7    23 1   
    15     8     9 ar  
    16     8    24 1   
    17     9    10 1   
    18     9    13 ar  
    19    10    11 1   
    20    10    25 1   
    21    11    12 1   
    22    11    26 1   
    23    11    27 1   
    24    12    14 ar  
    25    12    18 ar  
    26    13    28 1   
    27    14    15 ar  
    28    14    29 1   
    29    15    16 ar  
    30    15    30 1   
    31    16    17 ar  
    32    17    18 ar  
    33    17    31 1   
    34    18    32 1   
@<TRIPOS>SUBSTRUCTURE
     1 F91         1 TEMP              0 ****  ****    0 ROOT
