@<TRIPOS>MOLECULE
F92
   46    49     1     0     0
SMALL
abcg2


@<TRIPOS>ATOM
      1 C4          -0.1200     1.1170     0.1290 ca         1 F92       0.246500
      2 C5           0.5470     1.8580     1.1010 ca         1 F92      -0.289000
      3 C6           0.3140     3.2240     1.0900 ca         1 F92       0.153900
      4 N1          -0.5020     3.8120     0.2340 nb         1 F92      -0.244000
      5 N3          -0.9420     1.6860    -0.7430 nb         1 F92      -0.233000
      6 CAM          3.3390    -0.6910     1.1800 c6         1 F92      -0.085900
      7 CAK          4.7210    -0.0500     1.1290 c6         1 F92      -0.093900
      8 CAX          5.4990    -0.5210    -0.0900 c6         1 F92       0.170300
      9 OAB          6.7550     0.1240    -0.0820 oh         1 F92      -0.655000
     10 CAL          4.7160    -0.2360    -1.3680 c6         1 F92      -0.093900
     11 CAN          3.3370    -0.8870    -1.3320 c6         1 F92      -0.085900
     12 CAY          2.5660    -0.4090    -0.1050 c6         1 F92       0.077300
     13 NAZ          1.2270    -0.9920    -0.0510 na         1 F92      -0.151500
     14 CAJ          0.9500    -2.3070    -0.1480 cc         1 F92       0.403400
     15 NAP         -0.3350    -2.5460    -0.1190 nd         1 F92      -0.675000
     16 CAV         -0.9390    -1.3300    -0.0040 cd         1 F92       0.343500
     17 CAT         -2.3960    -1.2250     0.0980 ca         1 F92      -0.114500
     18 CAH         -3.2000    -2.1710    -0.5390 ca         1 F92      -0.060000
     19 CAF         -4.5830    -2.1180    -0.4530 ca         1 F92      -0.159000
     20 CAR         -5.1600    -1.1040     0.2870 ca         1 F92       0.169000
     21 FAC         -6.4990    -1.0410     0.3780 f          1 F92      -0.183000
     22 CAG         -4.4000    -0.1550     0.9440 ca         1 F92      -0.159000
     23 CAI         -3.0190    -0.2270     0.8490 ca         1 F92      -0.060000
     24 CAW          0.0200    -0.3390     0.0350 cc         1 F92      -0.262500
     25 C2          -1.1130     3.0080    -0.6470 ca         1 F92       0.382900
     26 NAA         -1.9850     3.5780    -1.4970 nv         1 F92      -1.060900
     27 H1           1.1900     1.4030     1.8390 ha         1 F92       0.136000
     28 H2           0.8040     3.8660     1.8130 h4         1 F92       0.023100
     29 H4           2.7850    -0.3150     2.0420 hc         1 F92       0.055200
     30 H5           4.6210     1.0410     1.0950 hc         1 F92       0.056450
     31 H6           5.2690    -0.2930     2.0420 hc         1 F92       0.056450
     32 H7           5.6290    -1.6120    -0.0070 h1         1 F92       0.029700
     33 H8           7.2650    -0.2020    -0.8300 ho         1 F92       0.445000
     34 H9           4.6140     0.8470    -1.4940 hc         1 F92       0.056450
     35 H10          5.2680    -0.6070    -2.2360 hc         1 F92       0.056450
     36 H11          2.7810    -0.6400    -2.2380 hc         1 F92       0.055200
     37 H12          3.4490    -1.9750    -1.3090 hc         1 F92       0.055200
     38 H13          2.4280     0.6700    -0.2000 h1         1 F92       0.077700
     39 H14          1.7200    -3.0570    -0.2420 h5         1 F92       0.056100
     40 H15         -2.7390    -2.9610    -1.1160 ha         1 F92       0.123000
     41 H16         -5.1980    -2.8530    -0.9540 ha         1 F92       0.129500
     42 H17         -4.8750     0.6210     1.5300 ha         1 F92       0.129500
     43 H18         -2.4280     0.5000     1.3890 ha         1 F92       0.123000
     44 H19         -2.3440     3.0410    -2.2670 hn         1 F92       0.501000
     45 H20         -2.0110     4.5790    -1.5750 hn         1 F92       0.501000
     46 H3           3.4360    -1.7730     1.3180 hc         1 F92       0.055200
@<TRIPOS>BOND
     1     1     2 ar  
     2     1     5 ar  
     3     1    24 1   
     4     2     3 ar  
     5     2    27 1   
     6     3     4 ar  
     7     3    28 1   
     8     4    25 ar  
     9     5    25 ar  
    10     6     7 1   
    11     6    12 1   
    12     6    29 1   
    13     6    46 1   
    14     7     8 1   
    15     7    30 1   
    16     7    31 1   
    17     8     9 1   
    18     8    10 1   
    19     8    32 1   
    20     9    33 1   
    21    10    11 1   
    22    10    34 1   
    23    10    35 1   
    24    11    12 1   
    25    11    36 1   
    26    11    37 1   
    27    12    13 1   
    28    12    38 1   
    29    13    14 1   
    30    13    24 1   
    31    14    15 2   
    32    14    39 1   
    33    15    16 1   
    34    16    17 1   
    35    16    24 2   
    36    17    18 ar  
    37    17    23 ar  
    38    18    19 ar  
    39    18    40 1   
    40    19    20 ar  
    41    19    41 1   
    42    20    21 1   
    43    20    22 ar  
    44    22    23 ar  
    45    22    42 1   
    46    23    43 1   
    47    25    26 1   
    48    26    44 1   
    49    26    45 1   
@<TRIPOS>SUBSTRUCTURE
     1 F92         1 TEMP              0 ****  ****    0 ROOT
