@<TRIPOS>MOLECULE
F92
   46    49     1     0     0
SMALL
No Charge or Current Charge


@<TRIPOS>ATOM
      1 C4          -0.1910     1.0860     0.1310 ca         1 F92       0.246500
      2 C5           0.4120     1.8670     1.1330 ca         1 F92      -0.289000
      3 C6           0.1670     3.2490     1.1250 ca         1 F92       0.153900
      4 N1          -0.6180     3.8150     0.1890 nb         1 F92      -0.244000
      5 N3          -0.9760     1.6540    -0.8080 nb         1 F92      -0.233000
      6 CAM          3.3940    -0.8300     1.1980 c6         1 F92      -0.085900
      7 CAK          4.8060    -0.1910     1.2030 c6         1 F92      -0.093900
      8 CAX          5.5870    -0.5330    -0.0910 c6         1 F92       0.170300
      9 OAB          6.8560     0.1240    -0.0780 oh         1 F92      -0.655000
     10 CAL          4.7830    -0.1070    -1.3470 c6         1 F92      -0.093900
     11 CAN          3.3710    -0.7490    -1.3560 c6         1 F92      -0.085900
     12 CAY          2.5930    -0.4000    -0.0590 c6         1 F92       0.077300
     13 NAZ          1.2410    -1.0090    -0.0560 na         1 F92      -0.151500
     14 CAJ          0.9490    -2.3440    -0.2440 cc         1 F92       0.403400
     15 NAP         -0.3610    -2.5460    -0.2600 nd         1 F92      -0.675000
     16 CAV         -0.9540    -1.3080    -0.0790 cd         1 F92       0.343500
     17 CAT         -2.4300    -1.1940     0.0640 ca         1 F92      -0.114500
     18 CAH         -3.2610    -2.2320    -0.4220 ca         1 F92      -0.060000
     19 CAF         -4.6580    -2.1720    -0.2690 ca         1 F92      -0.159000
     20 CAR         -5.2420    -1.0860     0.3940 ca         1 F92       0.169000
     21 FAC         -6.5830    -1.0300     0.5440 f          1 F92      -0.183000
     22 CAG         -4.4370    -0.0680     0.9190 ca         1 F92      -0.159000
     23 CAI         -3.0400    -0.1250     0.7660 ca         1 F92      -0.060000
     24 CAW          0.0340    -0.3550     0.0790 cc         1 F92      -0.262500
     25 C2          -1.1440     2.9820    -0.7210 ca         1 F92       0.382900
     26 NAA         -1.9330     3.5510    -1.6660 nv         1 F92      -1.060900
     27 H1           1.0420     1.4170     1.8940 ha         1 F92       0.136000
     28 H2           0.6020     3.9100     1.8740 h4         1 F92       0.023100
     29 H4           2.8510    -0.5340     2.1070 hc         1 F92       0.055200
     30 H5           4.7160     0.8990     1.3070 hc         1 F92       0.056450
     31 H6           5.3680    -0.5430     2.0800 hc         1 F92       0.056450
     32 H7           5.7350    -1.6230    -0.1270 h1         1 F92       0.029700
     33 H8           7.3450    -0.1920    -0.8690 ho         1 F92       0.445000
     34 H9           4.6880     0.9880    -1.3760 hc         1 F92       0.056450
     35 H10          5.3240    -0.3980    -2.2570 hc         1 F92       0.056450
     36 H11          2.8100    -0.3960    -2.2330 hc         1 F92       0.055200
     37 H12          3.4690    -1.8380    -1.4640 hc         1 F92       0.055200
     38 H13          2.4790     0.6920    -0.0300 h1         1 F92       0.077700
     39 H14          1.7180    -3.0980    -0.3670 h5         1 F92       0.056100
     40 H15         -2.8280    -3.0850    -0.9400 ha         1 F92       0.123000
     41 H16         -5.2850    -2.9680    -0.6630 ha         1 F92       0.129500
     42 H17         -4.8930     0.7600     1.4560 ha         1 F92       0.129500
     43 H18         -2.4440     0.6540     1.2300 ha         1 F92       0.123000
     44 H19         -2.1740     3.0060    -2.4910 hn         1 F92       0.501000
     45 H20         -1.9160     4.5630    -1.7760 hn         1 F92       0.501000
     46 H3           3.4860    -1.9250     1.2320 hc         1 F92       0.055200
@<TRIPOS>BOND
     1     1     2 ar  
     2     1     5 ar  
     3     1    24 1   
     4     2     3 ar  
     5     2    27 1   
     6     3     4 ar  
     7     3    28 1   
     8     4    25 ar  
     9     5    25 ar  
    10     6     7 1   
    11     6    12 1   
    12     6    29 1   
    13     6    46 1   
    14     7     8 1   
    15     7    30 1   
    16     7    31 1   
    17     8     9 1   
    18     8    10 1   
    19     8    32 1   
    20     9    33 1   
    21    10    11 1   
    22    10    34 1   
    23    10    35 1   
    24    11    12 1   
    25    11    36 1   
    26    11    37 1   
    27    12    13 1   
    28    12    38 1   
    29    13    14 1   
    30    13    24 1   
    31    14    15 2   
    32    14    39 1   
    33    15    16 1   
    34    16    17 1   
    35    16    24 2   
    36    17    18 ar  
    37    17    23 ar  
    38    18    19 ar  
    39    18    40 1   
    40    19    20 ar  
    41    19    41 1   
    42    20    21 1   
    43    20    22 ar  
    44    22    23 ar  
    45    22    42 1   
    46    23    43 1   
    47    25    26 1   
    48    26    44 1   
    49    26    45 1   
@<TRIPOS>SUBSTRUCTURE
     1 F92         1 TEMP              0 ****  ****    0 ROOT
