@<TRIPOS>MOLECULE
F93
   24    24     1     0     0
SMALL
abcg2


@<TRIPOS>ATOM
      1 CZ         -49.4210    79.8560   122.2460 ca         1 F93       0.130100
      2 CE1        -50.1260    81.0300   121.9920 ca         1 F93       0.022000
      3 CD1        -50.3150    81.5030   120.7020 ca         1 F93      -0.064000
      4 CG         -49.7980    80.8080   119.6170 ca         1 F93      -0.128300
      5 CD2        -49.0880    79.6350   119.8670 ca         1 F93      -0.065000
      6 CE2        -48.9000    79.1650   121.1530 ca         1 F93      -0.148000
      7 CB         -50.0470    81.2580   118.1970 c3         1 F93       0.180600
      8 CA         -51.2920    80.5670   117.6010 c3         1 F93       0.034500
      9 C          -51.4370    81.0030   116.1160 c          1 F93       0.737000
     10 N          -52.5210    80.7640   118.3390 n8         1 F93      -0.984200
     11 OC         -50.2460    82.6490   118.1030 oh         1 F93      -0.632000
     12 OH         -49.2100    79.3560   123.4730 oh         1 F93      -0.540100
     13 O          -50.4830    80.6890   115.3760 o          1 F93      -0.722500
     14 CL1        -50.7890    81.9160   123.3330 cl         1 F93      -0.238000
     15 OXT        -52.4650    81.6250   115.7960 o          1 F93      -0.722500
     16 H1         -50.8660    82.4220   120.5550 ha         1 F93       0.139000
     17 H2         -48.6680    79.0770   119.0380 ha         1 F93       0.127000
     18 H3         -48.3410    78.2540   121.3290 ha         1 F93       0.121000
     19 H4         -49.1880    80.9400   117.5910 h1         1 F93       0.062700
     20 H5         -51.0650    79.4940   117.6030 h1         1 F93       0.044700
     21 H6         -52.3810    80.5880   119.3270 hn         1 F93       0.382500
     22 H7         -52.8280    81.7230   118.2460 hn         1 F93       0.382500
     23 H9         -49.4500    83.0940   118.4100 ho         1 F93       0.415000
     24 H10        -49.6060    79.9170   124.1510 ho         1 F93       0.469000
@<TRIPOS>BOND
     1     1     2 ar  
     2     1     6 ar  
     3     1    12 1   
     4     2     3 ar  
     5     2    14 1   
     6     3     4 ar  
     7     3    16 1   
     8     4     5 ar  
     9     4     7 1   
    10     5     6 ar  
    11     5    17 1   
    12     6    18 1   
    13     7     8 1   
    14     7    11 1   
    15     7    19 1   
    16     8     9 1   
    17     8    10 1   
    18     8    20 1   
    19     9    13 1   
    20     9    15 1   
    21    10    21 1   
    22    10    22 1   
    23    11    23 1   
    24    12    24 1   
@<TRIPOS>SUBSTRUCTURE
     1 F93         1 TEMP              0 ****  ****    0 ROOT
