@<TRIPOS>MOLECULE
F93
   24    24     1     0     0
SMALL
No Charge or Current Charge


@<TRIPOS>ATOM
      1 CZ         -49.3070    79.8150   122.2370 ca         1 F93       0.130100
      2 CE1        -50.1730    80.9130   122.0620 ca         1 F93       0.022000
      3 CD1        -50.4440    81.3990   120.7710 ca         1 F93      -0.064000
      4 CG         -49.8520    80.7920   119.6390 ca         1 F93      -0.128300
      5 CD2        -48.9890    79.6920   119.8260 ca         1 F93      -0.065000
      6 CE2        -48.7180    79.2080   121.1180 ca         1 F93      -0.148000
      7 CB         -50.1320    81.2940   118.2180 c3         1 F93       0.180600
      8 CA         -51.3980    80.6310   117.5900 c3         1 F93       0.034500
      9 C          -51.3360    80.7810   116.0150 c          1 F93       0.737000
     10 N          -52.6830    81.0550   118.2840 n8         1 F93      -0.984200
     11 OC         -50.2510    82.7260   118.2120 oh         1 F93      -0.632000
     12 OH         -49.0360    79.3330   123.4860 oh         1 F93      -0.540100
     13 O          -50.7010    79.9430   115.3870 o          1 F93      -0.722500
     14 Cl1        -50.9260    81.6900   123.4560 cl         1 F93      -0.238000
     15 OXT        -52.0100    81.6490   115.4680 o          1 F93      -0.722500
     16 H1         -51.1140    82.2470   120.6560 ha         1 F93       0.139000
     17 H2         -48.5260    79.2090   118.9670 ha         1 F93       0.127000
     18 H3         -48.0510    78.3590   121.2500 ha         1 F93       0.121000
     19 H4         -49.2720    81.0050   117.5960 h1         1 F93       0.062700
     20 H5         -51.3010    79.5530   117.7750 h1         1 F93       0.044700
     21 H6         -52.5300    81.0210   119.2970 hn         1 F93       0.382500
     22 H7         -52.8110    82.0570   118.0960 hn         1 F93       0.382500
     23 H9         -49.4330    83.0780   118.6240 ho         1 F93       0.415000
     24 H10        -49.5360    79.8830   124.1300 ho         1 F93       0.469000
@<TRIPOS>BOND
     1     1     2 ar  
     2     1     6 ar  
     3     1    12 1   
     4     2     3 ar  
     5     2    14 1   
     6     3     4 ar  
     7     3    16 1   
     8     4     5 ar  
     9     4     7 1   
    10     5     6 ar  
    11     5    17 1   
    12     6    18 1   
    13     7     8 1   
    14     7    11 1   
    15     7    19 1   
    16     8     9 1   
    17     8    10 1   
    18     8    20 1   
    19     9    13 1   
    20     9    15 1   
    21    10    21 1   
    22    10    22 1   
    23    11    23 1   
    24    12    24 1   
@<TRIPOS>SUBSTRUCTURE
     1 F93         1 TEMP              0 ****  ****    0 ROOT
