@<TRIPOS>MOLECULE
F94
   29    31     1     0     0
SMALL
bcc


@<TRIPOS>ATOM
      1 CAK         -2.4100     0.9300    -0.3420 ca         1 F94      -0.127000
      2 CAL         -3.7680     1.2340    -0.3420 ca         1 F94       0.135100
      3 OAS         -4.1180     2.4970    -0.6480 oh         1 F94      -0.492100
      4 CAM         -4.7010     0.2480    -0.0360 ca         1 F94      -0.206000
      5 CAI         -4.2680    -1.0340     0.2690 ca         1 F94      -0.091000
      6 CAJ         -2.9200    -1.3490     0.2680 ca         1 F94      -0.135000
      7 CAH         -1.9840    -0.3620    -0.0450 ca         1 F94      -0.033800
      8 CAF         -0.5510    -0.6900    -0.0680 cc         1 F94       0.199900
      9 OAA          0.2280     0.3860     0.1100 os         1 F94      -0.216200
     10 CAB          1.5740     0.2740     0.0880 ca         1 F94       0.199100
     11 CAN          2.2920     1.4490     0.2630 ca         1 F94      -0.272000
     12 CAO          3.6770     1.3900     0.2560 ca         1 F94       0.198100
     13 OAR          4.4440     2.4730     0.4200 oh         1 F94      -0.483100
     14 CAP          4.3330     0.1610     0.0720 ca         1 F94      -0.199000
     15 CAQ          3.5970    -0.9850    -0.0970 ca         1 F94      -0.008000
     16 CAC          2.1960    -0.9580    -0.0920 ca         1 F94      -0.267600
     17 CAD          1.3890    -2.1630    -0.2740 c          1 F94       0.601900
     18 OAG          1.8790    -3.2750    -0.4310 o          1 F94      -0.546100
     19 CAE         -0.0390    -1.9230    -0.2630 cd         1 F94      -0.328200
     20 H1          -1.7030     1.7110    -0.5900 ha         1 F94       0.160000
     21 H2          -5.0760     2.5990    -0.6250 ho         1 F94       0.429000
     22 H3          -5.7610     0.4770    -0.0320 ha         1 F94       0.135000
     23 H4          -4.9960    -1.7950     0.5170 ha         1 F94       0.138000
     24 H5          -2.6030    -2.3480     0.5340 ha         1 F94       0.144000
     25 H6           1.7680     2.3870     0.4090 ha         1 F94       0.153000
     26 H7           3.9060     3.2660     0.5290 ho         1 F94       0.434000
     27 H8           5.4150     0.1290     0.0670 ha         1 F94       0.156000
     28 H9           4.1020    -1.9310    -0.2400 ha         1 F94       0.159000
     29 H10         -0.7050    -2.7570    -0.4310 ha         1 F94       0.164000
@<TRIPOS>BOND
     1     1     2 ar  
     2     1     7 ar  
     3     1    20 1   
     4     2     3 1   
     5     2     4 ar  
     6     3    21 1   
     7     4     5 ar  
     8     4    22 1   
     9     5     6 ar  
    10     5    23 1   
    11     6     7 ar  
    12     6    24 1   
    13     7     8 1   
    14     8     9 1   
    15     8    19 2   
    16     9    10 1   
    17    10    11 ar  
    18    10    16 ar  
    19    11    12 ar  
    20    11    25 1   
    21    12    13 1   
    22    12    14 ar  
    23    13    26 1   
    24    14    15 ar  
    25    14    27 1   
    26    15    16 ar  
    27    15    28 1   
    28    16    17 1   
    29    17    18 2   
    30    17    19 1   
    31    19    29 1   
@<TRIPOS>SUBSTRUCTURE
     1 F94         1 TEMP              0 ****  ****    0 ROOT
