@<TRIPOS>MOLECULE
F94
   29    31     1     0     0
SMALL
No Charge or Current Charge


@<TRIPOS>ATOM
      1 CAK         -2.5560     0.9380    -0.5360 ca         1 F94      -0.109000
      2 CAL         -3.9390     1.1680    -0.4630 ca         1 F94       0.135100
      3 OAS         -4.4530     2.3480    -0.9110 oh         1 F94      -0.531100
      4 CAM         -4.7900     0.1870     0.0670 ca         1 F94      -0.188000
      5 CAI         -4.2540    -1.0270     0.5290 ca         1 F94      -0.073000
      6 CAJ         -2.8690    -1.2580     0.4560 ca         1 F94      -0.117000
      7 CAH         -2.0040    -0.2800    -0.0830 ca         1 F94      -0.033800
      8 CAF         -0.5550    -0.5050    -0.1600 cc         1 F94       0.199900
      9 OAA          0.2800     0.6000    -0.1010 os         1 F94      -0.216200
     10 CAB          1.6400     0.3510     0.0130 ca         1 F94       0.199100
     11 CAN          2.4600     1.4550     0.3030 ca         1 F94      -0.254000
     12 CAO          3.8480     1.3030     0.4040 ca         1 F94       0.198100
     13 OAR          4.6350     2.3760     0.6900 oh         1 F94      -0.522100
     14 CAP          4.4330     0.0470     0.2080 ca         1 F94      -0.181000
     15 CAQ          3.6280    -1.0630    -0.0920 ca         1 F94       0.010000
     16 CAC          2.2300    -0.9070    -0.1910 ca         1 F94      -0.267600
     17 CAD          1.3560    -2.0520    -0.5060 c          1 F94       0.601900
     18 OAG          1.7860    -3.1650    -0.7760 o          1 F94      -0.546100
     19 CAE         -0.0590    -1.7600    -0.4420 cd         1 F94      -0.378200
     20 H1          -1.9130     1.7090    -0.9530 ha         1 F94       0.142000
     21 H2          -5.4260     2.3320    -0.7830 ho         1 F94       0.468000
     22 H3          -5.8620     0.3570     0.1280 ha         1 F94       0.117000
     23 H4          -4.9100    -1.7880     0.9470 ha         1 F94       0.120000
     24 H5          -2.4720    -2.1970     0.8340 ha         1 F94       0.126000
     25 H6           2.0020     2.4290     0.4470 ha         1 F94       0.135000
     26 H7           4.0570     3.1610     0.7920 ho         1 F94       0.473000
     27 H8           5.5110    -0.0680     0.2860 ha         1 F94       0.138000
     28 H9           4.0920    -2.0360    -0.2460 ha         1 F94       0.141000
     29 H10         -0.7000    -2.6140    -0.6160 ha         1 F94       0.214000
@<TRIPOS>BOND
     1     1     2 ar  
     2     1     7 ar  
     3     1    20 1   
     4     2     3 1   
     5     2     4 ar  
     6     3    21 1   
     7     4     5 ar  
     8     4    22 1   
     9     5     6 ar  
    10     5    23 1   
    11     6     7 ar  
    12     6    24 1   
    13     7     8 1   
    14     8     9 1   
    15     8    19 2   
    16     9    10 1   
    17    10    11 ar  
    18    10    16 ar  
    19    11    12 ar  
    20    11    25 1   
    21    12    13 1   
    22    12    14 ar  
    23    13    26 1   
    24    14    15 ar  
    25    14    27 1   
    26    15    16 ar  
    27    15    28 1   
    28    16    17 1   
    29    17    18 2   
    30    17    19 1   
    31    19    29 1   
@<TRIPOS>SUBSTRUCTURE
     1 F94         1 TEMP              0 ****  ****    0 ROOT
