@<TRIPOS>MOLECULE
F95
   24    25     1     0     0
SMALL
bcc


@<TRIPOS>ATOM
      1 C1           0.0400     0.2100     0.4140 ca         1 F95      -0.108800
      2 C2          -1.0650    -0.5920     0.1250 ca         1 F95       0.158100
      3 C3          -2.3460    -0.0690    -0.0110 ca         1 F95       0.075100
      4 C4          -2.5190     1.3060     0.1480 ca         1 F95       0.061100
      5 C5          -1.4270     2.1240     0.4320 ca         1 F95      -0.220000
      6 C6          -0.1650     1.5840     0.5590 ca         1 F95      -0.038000
      7 O1          -3.3610    -0.9090    -0.2890 oh         1 F95      -0.478100
      8 O2          -3.7800     1.7580     0.0110 oh         1 F95      -0.525100
      9 O3          -0.9530    -1.9300    -0.0400 os         1 F95      -0.329200
     10 C7           0.2330    -2.5830     0.0790 c          1 F95       0.755800
     11 C8           1.3860    -1.7820     0.3980 cc         1 F95      -0.334200
     12 C9           1.3230    -0.4400     0.5520 cd         1 F95       0.127600
     13 O4           0.2170    -3.7800    -0.0890 o          1 F95      -0.612500
     14 C10          2.5390     0.3560     0.8700 c3         1 F95      -0.218200
     15 C11          3.0960     1.1430    -0.3520 c          1 F95       0.938600
     16 O5           4.0870     1.8550    -0.1110 o          1 F95      -0.818300
     17 O6           2.5190     0.9830    -1.4390 o          1 F95      -0.818300
     18 H1          -1.5750     3.1910     0.5500 ha         1 F95       0.126000
     19 H2           0.6650     2.2380     0.7810 ha         1 F95       0.162000
     20 H3          -4.1950    -0.4250    -0.3250 ho         1 F95       0.426000
     21 H4          -3.8220     2.7140     0.1250 ho         1 F95       0.430000
     22 H5           2.3220    -2.3130     0.5090 ha         1 F95       0.155000
     23 H6           2.3360     1.0600     1.6810 hc         1 F95       0.042700
     24 H7           3.3240    -0.3090     1.2380 hc         1 F95       0.042700
@<TRIPOS>BOND
     1     1     2 ar  
     2     1     6 ar  
     3     1    12 1   
     4     2     3 ar  
     5     2     9 1   
     6     3     4 ar  
     7     3     7 1   
     8     4     5 ar  
     9     4     8 1   
    10     5     6 ar  
    11     5    18 1   
    12     6    19 1   
    13     7    20 1   
    14     8    21 1   
    15     9    10 1   
    16    10    11 1   
    17    10    13 2   
    18    11    12 2   
    19    11    22 1   
    20    12    14 1   
    21    14    15 1   
    22    14    23 1   
    23    14    24 1   
    24    15    16 1   
    25    15    17 1   
@<TRIPOS>SUBSTRUCTURE
     1 F95         1 TEMP              0 ****  ****    0 ROOT
