@<TRIPOS>MOLECULE
F95
   24    25     1     0     0
SMALL
No Charge or Current Charge


@<TRIPOS>ATOM
      1 C1           0.0090     0.2010     0.4250 ca         1 F95      -0.108800
      2 C2          -1.1210    -0.5910     0.1240 ca         1 F95       0.158100
      3 C3          -2.4080    -0.0090     0.0470 ca         1 F95       0.075100
      4 C4          -2.5670     1.3720     0.2690 ca         1 F95       0.061100
      5 C5          -1.4510     2.1660     0.5650 ca         1 F95      -0.202000
      6 C6          -0.1720     1.5870     0.6420 ca         1 F95      -0.020000
      7 O1          -3.5180    -0.7590    -0.2430 oh         1 F95      -0.517100
      8 O2          -3.8090     1.9400     0.1960 oh         1 F95      -0.564100
      9 O3          -0.9820    -1.9430    -0.1000 os         1 F95      -0.329200
     10 C7           0.2070    -2.6100    -0.0530 c          1 F95       0.680300
     11 C8           1.3860    -1.8020     0.2620 cc         1 F95      -0.384200
     12 C9           1.3330    -0.4490     0.4980 cd         1 F95       0.127600
     13 O4           0.2780    -3.8120    -0.2620 o          1 F95      -0.537000
     14 C10          2.6090     0.2930     0.8340 c3         1 F95      -0.218200
     15 C11          3.2050     0.9570    -0.4100 c          1 F95       0.728000
     16 O5           2.8460     2.0910    -0.6860 o          1 F95      -0.713000
     17 O6           3.9210     0.2800    -1.1330 o          1 F95      -0.713000
     18 H1          -1.5640     3.2340     0.7360 ha         1 F95       0.108000
     19 H2           0.6710     2.2350     0.8680 ha         1 F95       0.144000
     20 H3          -4.2770    -0.1330    -0.2390 ho         1 F95       0.465000
     21 H4          -3.7260     2.9030     0.3770 ho         1 F95       0.469000
     22 H5           2.3170    -2.3540     0.2940 ha         1 F95       0.205000
     23 H6           2.3730     1.0450     1.5930 hc         1 F95       0.042700
     24 H7           3.3190    -0.4530     1.2130 hc         1 F95       0.042700
@<TRIPOS>BOND
     1     1     2 ar  
     2     1     6 ar  
     3     1    12 1   
     4     2     3 ar  
     5     2     9 1   
     6     3     4 ar  
     7     3     7 1   
     8     4     5 ar  
     9     4     8 1   
    10     5     6 ar  
    11     5    18 1   
    12     6    19 1   
    13     7    20 1   
    14     8    21 1   
    15     9    10 1   
    16    10    11 1   
    17    10    13 2   
    18    11    12 2   
    19    11    22 1   
    20    12    14 1   
    21    14    15 1   
    22    14    23 1   
    23    14    24 1   
    24    15    16 1   
    25    15    17 1   
@<TRIPOS>SUBSTRUCTURE
     1 F95         1 TEMP              0 ****  ****    0 ROOT
