@<TRIPOS>MOLECULE
F96
   49    52     1     0     0
SMALL
bcc


@<TRIPOS>ATOM
      1 C11         16.9760    19.7540   182.3760 ca         1 F96      -0.139000
      2 C12         15.9110    19.0090   181.8260 cp         1 F96      -0.025000
      3 C7          13.5990    16.8460   185.0650 c3         1 F96      -0.063700
      4 C6          13.8170    12.9690   186.5230 c6         1 F96       0.106100
      5 C5          14.0390    11.5240   186.9550 c6         1 F96      -0.111400
      6 C4          15.0440    10.8420   186.0320 c6         1 F96      -0.112400
      7 C3          14.5970    10.9770   184.5790 c6         1 F96       0.152800
      8 C2          13.3760    13.0040   185.0560 c6         1 F96       0.188500
      9 N1          14.6520    17.8150   185.1050 na         1 F96      -0.143300
     10 C10         17.2070    19.8150   183.7350 ca         1 F96      -0.066000
     11 C9          16.3550    19.1070   184.5800 ca         1 F96       0.077400
     12 C8          15.3440    18.2040   186.2080 cc         1 F96       0.428700
     13 C13         15.7130    18.9730   180.3620 cp         1 F96      -0.002000
     14 N           14.3300    12.3480   184.1750 n7         1 F96      -0.799200
     15 C           14.1050    15.4500   184.7420 c          1 F96       0.550100
     16 O           15.2870    15.2300   184.6330 o          1 F96      -0.500100
     17 C1          13.0320    14.4120   184.5670 c3         1 F96      -0.169400
     18 C14         15.2580    17.8160   179.7250 ca         1 F96      -0.138000
     19 C15         15.0770    17.7880   178.3510 ca         1 F96      -0.104000
     20 C16         15.3500    18.9060   177.5730 ca         1 F96      -0.169000
     21 C17         15.8030    20.0410   178.2160 ca         1 F96       0.134900
     22 C18         15.9840    20.1000   179.5830 ca         1 F96      -0.163000
     23 C19         15.0550    18.3030   182.6640 ca         1 F96      -0.113000
     24 C20         15.2980    18.3680   184.0280 ca         1 F96      -0.075200
     25 F           16.0720    21.1360   177.4870 f          1 F96      -0.144900
     26 N2          16.3540    18.9820   185.9490 nd         1 F96      -0.567100
     27 O1          12.8270    13.6230   187.2880 oh         1 F96      -0.602800
     28 H1          17.6500    20.2770   181.7110 ha         1 F96       0.135000
     29 H2          13.0980    16.8110   186.0350 h1         1 F96       0.083700
     30 H3          12.8350    17.1370   184.3390 h1         1 F96       0.083700
     31 H4          14.7790    13.4970   186.6100 h1         1 F96       0.038700
     32 H6          14.3860    11.4930   187.9920 hc         1 F96       0.048700
     33 H7          15.1530     9.7880   186.2990 hc         1 F96       0.049200
     34 H8          16.0310    11.3000   186.1550 hc         1 F96       0.049200
     35 H9          13.6810    10.3950   184.4310 h1         1 F96       0.055200
     36 H10         15.3470    10.5580   183.9050 h1         1 F96       0.055200
     37 H11         12.4440    12.4280   184.9910 h1         1 F96       0.070700
     38 H12         18.0360    20.3870   184.1320 ha         1 F96       0.149000
     39 H13         15.0390    17.8830   187.1940 h5         1 F96       0.059800
     40 H14         15.1980    12.8710   184.1700 hn         1 F96       0.371800
     41 H16         12.1120    14.7590   185.0390 hc         1 F96       0.077700
     42 H17         12.8140    14.3660   183.4930 hc         1 F96       0.077700
     43 H18         15.0640    16.9210   180.3020 ha         1 F96       0.137000
     44 H19         14.7280    16.8820   177.8740 ha         1 F96       0.135000
     45 H20         15.2150    18.8930   176.5000 ha         1 F96       0.150000
     46 H21         16.3150    21.0260   180.0360 ha         1 F96       0.152000
     47 H22         14.2180    17.7410   182.2670 ha         1 F96       0.134000
     48 H23         13.0960    13.6030   188.2120 ho         1 F96       0.407000
     49 H5          13.0830    10.9900   186.9210 hc         1 F96       0.048700
@<TRIPOS>BOND
     1     1     2 ar  
     2     1    10 ar  
     3     1    28 1   
     4     2    13 1   
     5     2    23 ar  
     6     3     9 1   
     7     3    15 1   
     8     3    29 1   
     9     3    30 1   
    10     4     5 1   
    11     4     8 1   
    12     4    27 1   
    13     4    31 1   
    14     5     6 1   
    15     5    32 1   
    16     5    49 1   
    17     6     7 1   
    18     6    33 1   
    19     6    34 1   
    20     7    14 1   
    21     7    35 1   
    22     7    36 1   
    23     8    14 1   
    24     8    17 1   
    25     8    37 1   
    26     9    12 1   
    27     9    24 1   
    28    10    11 ar  
    29    10    38 1   
    30    11    24 ar  
    31    11    26 1   
    32    12    26 2   
    33    12    39 1   
    34    13    18 ar  
    35    13    22 ar  
    36    14    40 1   
    37    15    16 2   
    38    15    17 1   
    39    17    41 1   
    40    17    42 1   
    41    18    19 ar  
    42    18    43 1   
    43    19    20 ar  
    44    19    44 1   
    45    20    21 ar  
    46    20    45 1   
    47    21    22 ar  
    48    21    25 1   
    49    22    46 1   
    50    23    24 ar  
    51    23    47 1   
    52    27    48 1   
@<TRIPOS>SUBSTRUCTURE
     1 F96         1 TEMP              0 ****  ****    0 ROOT
