@<TRIPOS>MOLECULE
F96
   49    52     1     0     0
SMALL
No Charge or Current Charge


@<TRIPOS>ATOM
      1 C11         16.7610    19.6020   182.0900 ca         1 F96      -0.121000
      2 C12         15.6450    18.7110   182.1110 cp         1 F96      -0.025000
      3 C7          15.2760    16.5930   186.1020 c3         1 F96      -0.034400
      4 C6          13.4800    13.7840   184.7790 c6         1 F96       0.129300
      5 C5          12.5300    12.5760   184.5990 c6         1 F96      -0.111400
      6 C4          13.0040    11.3790   185.4610 c6         1 F96      -0.112400
      7 C3          14.4750    11.0120   185.1480 c6         1 F96       0.152800
      8 C2          14.9660    13.3520   184.5030 c6         1 F96       0.188500
      9 N1          16.2250    17.6360   185.6600 na         1 F96      -0.172600
     10 C10         17.5890    19.7730   183.2210 ca         1 F96      -0.048000
     11 C9          17.2970    19.0430   184.3800 ca         1 F96       0.077400
     12 C8          17.3010    18.1860   186.3640 cc         1 F96       0.428700
     13 C13         14.7730    18.5330   180.9050 cp         1 F96      -0.002000
     14 N           15.3680    12.1820   185.3290 n7         1 F96      -0.854400
     15 C           15.8870    15.1850   186.0800 c          1 F96       0.550100
     16 O           16.2980    14.6550   187.1060 o          1 F96      -0.500100
     17 C1          16.0010    14.4900   184.7180 c3         1 F96      -0.169400
     18 C14         14.1770    17.2790   180.6100 ca         1 F96      -0.120000
     19 C15         13.3580    17.1080   179.4800 ca         1 F96      -0.086000
     20 C16         13.1170    18.1910   178.6190 ca         1 F96      -0.151000
     21 C17         13.6970    19.4380   178.8930 ca         1 F96       0.170000
     22 C18         14.5150    19.6100   180.0200 ca         1 F96      -0.145000
     23 C19         15.3850    17.9940   183.3100 ca         1 F96      -0.095000
     24 C20         16.2340    18.1860   184.4110 ca         1 F96      -0.075200
     25 F           13.4620    20.4820   178.0680 f          1 F96      -0.180000
     26 N2          17.9830    19.0620   185.5930 nd         1 F96      -0.567100
     27 O1          13.0750    14.8450   183.9050 oh         1 F96      -0.665000
     28 H1          16.9970    20.1550   181.1850 ha         1 F96       0.117000
     29 H2          14.9620    16.8090   187.1300 h1         1 F96       0.083700
     30 H3          14.3820    16.6000   185.4710 h1         1 F96       0.083700
     31 H4          13.3990    14.1180   185.8250 h1         1 F96       0.038700
     32 H6          11.5040    12.8520   184.8800 hc         1 F96       0.048700
     33 H7          12.3600    10.5080   185.2790 hc         1 F96       0.049200
     34 H8          12.9030    11.6230   186.5280 hc         1 F96       0.049200
     35 H9          14.5480    10.6510   184.1100 h1         1 F96       0.055200
     36 H10         14.8000    10.1910   185.8050 h1         1 F96       0.055200
     37 H11         15.0340    13.0540   183.4450 h1         1 F96       0.070700
     38 H12         18.4380    20.4520   183.1940 ha         1 F96       0.131000
     39 H13         17.5310    17.9120   187.3870 h5         1 F96       0.059800
     40 H14         15.3520    12.4580   186.3190 hn         1 F96       0.427000
     41 H16         15.8480    15.2340   183.9300 hc         1 F96       0.077700
     42 H17         17.0130    14.0810   184.6190 hc         1 F96       0.077700
     43 H18         14.3600    16.4240   181.2570 ha         1 F96       0.119000
     44 H19         12.9130    16.1370   179.2720 ha         1 F96       0.117000
     45 H20         12.4850    18.0660   177.7440 ha         1 F96       0.132000
     46 H21         14.9370    20.5920   180.2140 ha         1 F96       0.134000
     47 H22         14.5370    17.3190   183.3740 ha         1 F96       0.116000
     48 H23         12.1040    14.9470   184.0130 ho         1 F96       0.446000
     49 H5          12.5000    12.2770   183.5420 hc         1 F96       0.048700
@<TRIPOS>BOND
     1     1     2 ar  
     2     1    10 ar  
     3     1    28 1   
     4     2    13 1   
     5     2    23 ar  
     6     3     9 1   
     7     3    15 1   
     8     3    29 1   
     9     3    30 1   
    10     4     5 1   
    11     4     8 1   
    12     4    27 1   
    13     4    31 1   
    14     5     6 1   
    15     5    32 1   
    16     5    49 1   
    17     6     7 1   
    18     6    33 1   
    19     6    34 1   
    20     7    14 1   
    21     7    35 1   
    22     7    36 1   
    23     8    14 1   
    24     8    17 1   
    25     8    37 1   
    26     9    12 1   
    27     9    24 1   
    28    10    11 ar  
    29    10    38 1   
    30    11    24 ar  
    31    11    26 1   
    32    12    26 2   
    33    12    39 1   
    34    13    18 ar  
    35    13    22 ar  
    36    14    40 1   
    37    15    16 2   
    38    15    17 1   
    39    17    41 1   
    40    17    42 1   
    41    18    19 ar  
    42    18    43 1   
    43    19    20 ar  
    44    19    44 1   
    45    20    21 ar  
    46    20    45 1   
    47    21    22 ar  
    48    21    25 1   
    49    22    46 1   
    50    23    24 ar  
    51    23    47 1   
    52    27    48 1   
@<TRIPOS>SUBSTRUCTURE
     1 F96         1 TEMP              0 ****  ****    0 ROOT
