@<TRIPOS>MOLECULE
F97
   57    61     1     0     0
SMALL
abcg2


@<TRIPOS>ATOM
      1 C5           4.1210    -1.2240    -0.3170 ca         1 F97       0.018800
      2 C6           2.7540    -0.9490    -0.3860 ca         1 F97      -0.231000
      3 C7           1.9270    -1.9150     0.1590 ca         1 F97       0.629900
      4 C10          4.5950    -2.4270     0.2320 ca         1 F97      -0.325900
      5 N12          6.3430    -1.2070    -0.4440 nc         1 F97      -0.518100
      6 C15          0.1580     0.6000     0.3780 ca         1 F97      -0.327000
      7 C21         -4.7810     0.7070    -0.0340 c5         1 F97       0.246800
      8 C22         -6.0270    -0.0860    -0.4140 c5         1 F97      -0.152400
      9 C24         -4.2190    -1.6550    -0.1690 c5         1 F97       0.192800
     10 C28         -1.3560     3.7810     1.5410 c5         1 F97      -0.061400
     11 C1           5.9020     1.7790    -0.3110 c3         1 F97      -0.105100
     12 C3           5.9990     0.7720    -2.6290 c3         1 F97      -0.105100
     13 N4           5.2090    -0.5340    -0.7120 na         1 F97       0.071600
     14 N8           2.3660    -3.0860     0.6720 nb         1 F97      -0.748000
     15 C9           3.6530    -3.3420     0.7000 ca         1 F97       0.459900
     16 C11          6.0060    -2.3370     0.1130 cd         1 F97       0.381800
     17 N13          0.5460    -1.8130     0.1870 nu         1 F97      -0.908800
     18 C14         -0.2730    -0.7200     0.1940 ca         1 F97       0.428900
     19 C16         -0.8260     1.5750     0.3700 ca         1 F97       0.189300
     20 N17         -2.1140     1.2920     0.2140 nb         1 F97      -0.277000
     21 C18         -2.4220     0.0030     0.0760 ca         1 F97       0.433900
     22 N19         -1.5600    -1.0140     0.0460 nb         1 F97      -0.320000
     23 N20         -3.7280    -0.3000    -0.0560 nh         1 F97      -0.792300
     24 C23         -5.7040    -1.4720     0.0900 c5         1 F97       0.165000
     25 F25         -6.4530    -2.4520    -0.4780 f          1 F97      -0.109500
     26 F26         -5.9510    -1.5510     1.4350 f          1 F97      -0.109500
     27 C27         -0.4720     3.0260     0.5190 c5         1 F97      -0.128000
     28 C29         -2.1690     4.7480     0.6880 c5         1 F97       0.148800
     29 N30         -1.2400     5.0710    -0.3830 n7         1 F97      -0.859400
     30 C31         -0.7010     3.7890    -0.8080 c5         1 F97       0.156800
     31 H1           2.3700    -0.0630    -0.8680 ha         1 F97       0.139000
     32 H2           1.1870     0.8660     0.5600 ha         1 F97       0.140000
     33 H3          -4.5770     1.5110    -0.7400 h1         1 F97       0.065200
     34 H4          -4.8730     1.1580     0.9570 h1         1 F97       0.065200
     35 H5          -6.9440     0.3190     0.0140 hc         1 F97       0.081200
     36 H6          -6.1390    -0.1240    -1.4990 hc         1 F97       0.081200
     37 H7          -4.0590    -2.0690    -1.1690 h1         1 F97       0.081700
     38 H8          -3.7560    -2.3290     0.5530 h1         1 F97       0.081700
     39 H9          -1.9880     3.1120     2.1220 hc         1 F97       0.054700
     40 H10         -0.7210     4.3290     2.2380 hc         1 F97       0.054700
     41 H11          5.3520     1.8050     0.6290 hc         1 F97       0.050200
     42 H12          6.9370     1.5070    -0.1010 hc         1 F97       0.050200
     43 H13          5.8960     2.7840    -0.7330 hc         1 F97       0.050200
     44 H14          4.2360     1.0920    -1.4670 h1         1 F97       0.056700
     45 H15          7.0430     0.4840    -2.5040 hc         1 F97       0.050200
     46 H16          5.5270     0.0760    -3.3230 hc         1 F97       0.050200
     47 H17          5.9760     1.7650    -3.0790 hc         1 F97       0.050200
     48 H18          3.9550    -4.3010     1.1090 h4         1 F97       0.027100
     49 H19          6.7570    -3.0520     0.4130 h4         1 F97       0.052800
     50 H20          0.0630    -2.6950     0.2840 hn         1 F97       0.523000
     51 H21          0.5790     3.0980     0.8050 hc         1 F97       0.064700
     52 H22         -3.0810     4.2470     0.3330 h1         1 F97       0.039200
     53 H23         -2.4710     5.6450     1.2320 h1         1 F97       0.039200
     54 H24         -1.7000     5.5480    -1.1470 hn         1 F97       0.411000
     55 H26          0.2260     3.9130    -1.3700 h1         1 F97       0.040700
     56 H27         -1.4000     3.2250    -1.4400 h1         1 F97       0.040700
     57 C2           5.2730     0.8000    -1.2930 c3         1 F97       0.114300
@<TRIPOS>BOND
     1     1     2 ar  
     2     1     4 ar  
     3     1    13 1   
     4     2     3 ar  
     5     2    31 1   
     6     3    14 ar  
     7     3    17 1   
     8     4    15 ar  
     9     4    16 1   
    10     5    13 1   
    11     5    16 2   
    12     6    18 ar  
    13     6    19 ar  
    14     6    32 1   
    15     7     8 1   
    16     7    23 1   
    17     7    33 1   
    18     7    34 1   
    19     8    24 1   
    20     8    35 1   
    21     8    36 1   
    22     9    23 1   
    23     9    24 1   
    24     9    37 1   
    25     9    38 1   
    26    10    27 1   
    27    10    28 1   
    28    10    39 1   
    29    10    40 1   
    30    11    41 1   
    31    11    42 1   
    32    11    43 1   
    33    11    57 1   
    34    12    45 1   
    35    12    46 1   
    36    12    47 1   
    37    12    57 1   
    38    13    57 1   
    39    14    15 ar  
    40    15    48 1   
    41    16    49 1   
    42    17    18 1   
    43    17    50 1   
    44    18    22 ar  
    45    19    20 ar  
    46    19    27 1   
    47    20    21 ar  
    48    21    22 ar  
    49    21    23 1   
    50    24    25 1   
    51    24    26 1   
    52    27    30 1   
    53    27    51 1   
    54    28    29 1   
    55    28    52 1   
    56    28    53 1   
    57    29    30 1   
    58    29    54 1   
    59    30    55 1   
    60    30    56 1   
    61    44    57 1   
@<TRIPOS>SUBSTRUCTURE
     1 F97         1 TEMP              0 ****  ****    0 ROOT
