@<TRIPOS>MOLECULE
F97
   57    61     1     0     0
SMALL
No Charge or Current Charge


@<TRIPOS>ATOM
      1 C5           4.1760    -1.3030    -0.3580 ca         1 F97       0.018800
      2 C6           2.8280    -0.9510    -0.2760 ca         1 F97      -0.231000
      3 C7           1.9950    -1.8570     0.4060 ca         1 F97       0.629900
      4 C10          4.5970    -2.4620     0.1910 ca         1 F97      -0.325900
      5 N12          6.4330    -1.4470    -0.7300 nc         1 F97      -0.518100
      6 C15          0.1840     0.6880     0.6550 ca         1 F97      -0.327000
      7 C21         -4.8170     0.7080    -0.1440 c5         1 F97       0.246800
      8 C22         -5.9350    -0.1340    -0.8100 c5         1 F97      -0.152400
      9 C24         -4.2300    -1.6960    -0.1050 c5         1 F97       0.192800
     10 C28         -1.3680     3.8770     1.7310 c5         1 F97      -0.061400
     11 C1           5.4830     1.7830    -0.5920 c3         1 F97      -0.105100
     12 C3           6.1960     0.7240    -2.8080 c3         1 F97      -0.105100
     13 N4           5.2720    -0.6840    -0.9290 na         1 F97       0.071600
     14 N8           2.3990    -3.0230     0.9330 nb         1 F97      -0.748000
     15 C9           3.7170    -3.3320     0.8340 ca         1 F97       0.459900
     16 C11          6.0130    -2.5320    -0.0560 cd         1 F97       0.381800
     17 N13          0.6540    -1.7010     0.5680 nu         1 F97      -0.908800
     18 C14         -0.2180    -0.6390     0.4820 ca         1 F97       0.428900
     19 C16         -0.7930     1.6940     0.5670 ca         1 F97       0.189300
     20 N17         -2.0780     1.3540     0.3300 nb         1 F97      -0.277000
     21 C18         -2.3680     0.0460     0.2000 ca         1 F97       0.433900
     22 N19         -1.4930    -0.9710     0.2730 nb         1 F97      -0.320000
     23 N20         -3.7190    -0.2910    -0.0350 nh         1 F97      -0.792300
     24 C23         -5.7750    -1.5000    -0.1000 c5         1 F97       0.165000
     25 F25         -6.4290    -2.5150    -0.7970 f          1 F97      -0.109500
     26 F26         -6.2880    -1.4660     1.1980 f          1 F97      -0.109500
     27 C27         -0.3790     3.1600     0.7440 c5         1 F97      -0.128000
     28 C29         -2.2490     4.7210     0.7770 c5         1 F97       0.148800
     29 N30         -1.2730     5.1470    -0.2450 n7         1 F97      -0.859400
     30 C31         -0.6040     3.8850    -0.6210 c5         1 F97       0.156800
     31 H1           2.4410    -0.0460    -0.7290 ha         1 F97       0.139000
     32 H2           1.2140     0.9410     0.8780 ha         1 F97       0.140000
     33 H3          -4.5490     1.5740    -0.7670 h1         1 F97       0.065200
     34 H4          -5.1220     1.0730     0.8470 h1         1 F97       0.065200
     35 H5          -6.9280     0.3060    -0.6690 hc         1 F97       0.081200
     36 H6          -5.7660    -0.2250    -1.8890 hc         1 F97       0.081200
     37 H7          -3.8970    -2.1990    -1.0250 h1         1 F97       0.081700
     38 H8          -3.9080    -2.3010     0.7540 h1         1 F97       0.081700
     39 H9          -1.9550     3.1940     2.3550 hc         1 F97       0.054700
     40 H10         -0.8170     4.5320     2.4160 hc         1 F97       0.054700
     41 H11          4.7500     1.7430     0.2230 hc         1 F97       0.050200
     42 H12          6.4870     1.7090    -0.1560 hc         1 F97       0.050200
     43 H13          5.3910     2.7580    -1.0840 hc         1 F97       0.050200
     44 H14          4.2240     0.7690    -1.9950 h1         1 F97       0.056700
     45 H15          7.2420     0.6400    -2.4900 hc         1 F97       0.050200
     46 H16          5.9860    -0.0820    -3.5220 hc         1 F97       0.050200
     47 H17          6.0720     1.6800    -3.3300 hc         1 F97       0.050200
     48 H18          4.0510    -4.2730     1.2700 h4         1 F97       0.027100
     49 H19          6.7300    -3.2950     0.2220 h4         1 F97       0.052800
     50 H20          0.2150    -2.5830     0.8030 hn         1 F97       0.523000
     51 H21          0.6570     3.2650     1.0860 hc         1 F97       0.064700
     52 H22         -3.0450     4.1090     0.3270 h1         1 F97       0.039200
     53 H23         -2.7180     5.5750     1.2850 h1         1 F97       0.039200
     54 H24         -1.7550     5.5540    -1.0580 hn         1 F97       0.411000
     55 H26          0.3390     4.0680    -1.1560 h1         1 F97       0.040700
     56 H27         -1.2550     3.3040    -1.2910 h1         1 F97       0.040700
     57 C2           5.2380     0.6380    -1.5980 c3         1 F97       0.114300
@<TRIPOS>BOND
     1     1     2 ar  
     2     1     4 ar  
     3     1    13 1   
     4     2     3 ar  
     5     2    31 1   
     6     3    14 ar  
     7     3    17 1   
     8     4    15 ar  
     9     4    16 1   
    10     5    13 1   
    11     5    16 2   
    12     6    18 ar  
    13     6    19 ar  
    14     6    32 1   
    15     7     8 1   
    16     7    23 1   
    17     7    33 1   
    18     7    34 1   
    19     8    24 1   
    20     8    35 1   
    21     8    36 1   
    22     9    23 1   
    23     9    24 1   
    24     9    37 1   
    25     9    38 1   
    26    10    27 1   
    27    10    28 1   
    28    10    39 1   
    29    10    40 1   
    30    11    41 1   
    31    11    42 1   
    32    11    43 1   
    33    11    57 1   
    34    12    45 1   
    35    12    46 1   
    36    12    47 1   
    37    12    57 1   
    38    13    57 1   
    39    14    15 ar  
    40    15    48 1   
    41    16    49 1   
    42    17    18 1   
    43    17    50 1   
    44    18    22 ar  
    45    19    20 ar  
    46    19    27 1   
    47    20    21 ar  
    48    21    22 ar  
    49    21    23 1   
    50    24    25 1   
    51    24    26 1   
    52    27    30 1   
    53    27    51 1   
    54    28    29 1   
    55    28    52 1   
    56    28    53 1   
    57    29    30 1   
    58    29    54 1   
    59    30    55 1   
    60    30    56 1   
    61    44    57 1   
@<TRIPOS>SUBSTRUCTURE
     1 F97         1 TEMP              0 ****  ****    0 ROOT
