@<TRIPOS>MOLECULE
F99
   42    44     1     0     0
SMALL
No Charge or Current Charge


@<TRIPOS>ATOM
      1 C4         -29.3790    14.9130   105.1930 ca         1 F99      -0.109000
      2 C5         -27.9970    14.8930   105.4380 ca         1 F99      -0.070200
      3 C6         -27.1270    15.7590   104.8270 ca         1 F99       0.072400
      4 N1         -27.2740    14.0820   106.2720 na         1 F99      -0.170600
      5 C2         -28.9850    16.7600   103.6370 ca         1 F99       0.091000
      6 N          -25.8190    15.5360   105.2420 nc         1 F99      -0.568100
      7 O          -26.5270    10.9310   106.6880 o          1 F99      -0.499100
      8 C1         -27.5930    16.7220   103.9050 ca         1 F99       0.003700
      9 C10        -28.4900    11.1260   105.3000 c3         1 F99      -0.168400
     10 C11        -29.4270     9.9720   105.7510 c6         1 F99       0.188500
     11 C12        -29.4590     7.5310   106.1660 c6         1 F99       0.151800
     12 C13        -30.1790     7.7440   107.5200 c6         1 F99      -0.111400
     13 C14        -31.0400     9.0320   107.5010 c6         1 F99      -0.112400
     14 C15        -30.1770    10.2550   107.1030 c6         1 F99       0.130300
     15 C3         -29.8690    15.8630   104.2770 ca         1 F99      -0.082000
     16 C7         -25.9470    14.5130   106.1120 cd         1 F99       0.428700
     17 C8         -27.8000    12.9440   107.0510 c3         1 F99      -0.034400
     18 C9         -27.5140    11.5910   106.3860 c          1 F99       0.553100
     19 N2         -28.6380     8.7120   105.8060 n7         1 F99      -0.852400
     20 O1         -31.0100    11.4170   107.0040 oh         1 F99      -0.665000
     21 Cl         -29.6570    17.9290   102.4990 cl         1 F99      -0.214000
     22 H1         -30.0590    14.2250   105.6870 ha         1 F99       0.119000
     23 H2         -26.8980    18.7310   103.4470 hc         1 F99       0.055033
     24 H3         -25.5950    17.5440   103.5210 hc         1 F99       0.055033
     25 H4         -26.6750    17.5720   102.1260 hc         1 F99       0.055033
     26 H5         -29.1170    11.9740   105.0060 hc         1 F99       0.077200
     27 H6         -27.9110    10.8020   104.4270 hc         1 F99       0.077200
     28 H7         -30.1900     9.8550   104.9650 h1         1 F99       0.069700
     29 H8         -30.2070     7.3500   105.3790 h1         1 F99       0.055200
     30 H9         -28.8190     6.6380   106.2230 h1         1 F99       0.055200
     31 H10        -30.8130     6.8740   107.7420 hc         1 F99       0.049200
     32 H11        -29.4370     7.8030   108.3280 hc         1 F99       0.049200
     33 H12        -31.8680     8.9100   106.7880 hc         1 F99       0.048200
     34 H13        -31.4930     9.1910   108.4890 hc         1 F99       0.048200
     35 H14        -29.4290    10.4040   107.8950 h1         1 F99       0.042700
     36 H15        -30.9330    15.9070   104.0620 ha         1 F99       0.128000
     37 H16        -25.1360    14.0330   106.6480 h5         1 F99       0.060800
     38 H17        -28.8810    13.0490   107.1930 h1         1 F99       0.082200
     39 H18        -27.3300    12.9400   108.0420 h1         1 F99       0.082200
     40 H19        -27.8940     8.8220   106.5060 hn         1 F99       0.425000
     41 H21        -31.5660    11.4400   107.8140 ho         1 F99       0.446000
     42 C          -26.6370    17.6930   103.2150 c3         1 F99      -0.045800
@<TRIPOS>BOND
     1     1     2 ar  
     2     1    15 ar  
     3     1    22 1   
     4     2     3 ar  
     5     2     4 1   
     6     3     6 1   
     7     3     8 ar  
     8     4    16 1   
     9     4    17 1   
    10     5     8 ar  
    11     5    15 ar  
    12     5    21 1   
    13     6    16 2   
    14     7    18 2   
    15     8    42 1   
    16     9    10 1   
    17     9    18 1   
    18     9    26 1   
    19     9    27 1   
    20    10    14 1   
    21    10    19 1   
    22    10    28 1   
    23    11    12 1   
    24    11    19 1   
    25    11    29 1   
    26    11    30 1   
    27    12    13 1   
    28    12    31 1   
    29    12    32 1   
    30    13    14 1   
    31    13    33 1   
    32    13    34 1   
    33    14    20 1   
    34    14    35 1   
    35    15    36 1   
    36    16    37 1   
    37    17    18 1   
    38    17    38 1   
    39    17    39 1   
    40    19    40 1   
    41    20    41 1   
    42    23    42 1   
    43    24    42 1   
    44    25    42 1   
@<TRIPOS>SUBSTRUCTURE
     1 F99         1 TEMP              0 ****  ****    0 ROOT
