@<TRIPOS>MOLECULE
F99
   42    44     1     0     0
SMALL
bcc


@<TRIPOS>ATOM
      1 C4         -29.0780    14.9280   103.5940 ca         1 F99      -0.127000
      2 C5         -28.5440    15.1390   104.8580 ca         1 F99      -0.070200
      3 C6         -27.4080    15.9320   105.0770 ca         1 F99       0.072400
      4 N1         -28.9220    14.7040   106.1020 na         1 F99      -0.141300
      5 C2         -27.2990    16.3420   102.7650 ca         1 F99      -0.000600
      6 N          -27.1060    15.9540   106.4190 nc         1 F99      -0.568100
      7 O          -28.3760    12.0660   105.8550 o          1 F99      -0.499100
      8 C1         -26.7480    16.5660   104.0170 ca         1 F99       0.003700
      9 C10        -30.6360    11.3170   106.1820 c3         1 F99      -0.168400
     10 C11        -30.2480     9.8700   106.4780 c6         1 F99       0.188500
     11 C12        -29.2810     7.8490   105.5750 c6         1 F99       0.151800
     12 C13        -28.5310     7.5670   106.8740 c6         1 F99      -0.111400
     13 C14        -29.2600     8.2060   108.0520 c6         1 F99      -0.112400
     14 C15        -29.4860     9.6920   107.7960 c6         1 F99       0.107100
     15 C3         -28.4320    15.5480   102.5430 ca         1 F99      -0.100000
     16 C7         -28.0150    15.2100   106.9770 cd         1 F99       0.428700
     17 C8         -29.9560    13.7570   106.3930 c3         1 F99      -0.063700
     18 C9         -29.5250    12.3250   106.1190 c          1 F99       0.553100
     19 N2         -29.5540     9.2610   105.3530 n7         1 F99      -0.797200
     20 O1         -30.2330    10.3120   108.8210 oh         1 F99      -0.602800
     21 CL         -26.5530    17.0800   101.3760 cl         1 F99      -0.122400
     22 H1         -29.9510    14.3110   103.4240 ha         1 F99       0.137000
     23 H2         -25.6980    18.4360   103.9030 hc         1 F99       0.055033
     24 H3         -25.2810    17.4460   105.3010 hc         1 F99       0.055033
     25 H4         -24.6740    17.0260   103.7000 hc         1 F99       0.055033
     26 H5         -31.3880    11.6620   106.8950 hc         1 F99       0.077200
     27 H6         -31.1320    11.3540   105.2040 hc         1 F99       0.077200
     28 H7         -31.1970     9.3270   106.5860 h1         1 F99       0.069700
     29 H8         -30.2370     7.3140   105.5870 h1         1 F99       0.055200
     30 H9         -28.7210     7.4680   104.7190 h1         1 F99       0.055200
     31 H10        -28.4280     6.4900   107.0260 hc         1 F99       0.049200
     32 H11        -27.5170     7.9730   106.8020 hc         1 F99       0.049200
     33 H12        -30.2300     7.7190   108.2000 hc         1 F99       0.048200
     34 H13        -28.6900     8.0690   108.9760 hc         1 F99       0.048200
     35 H14        -28.4990    10.1690   107.6950 h1         1 F99       0.042700
     36 H15        -28.8010    15.4200   101.5350 ha         1 F99       0.146000
     37 H16        -28.0880    15.0010   108.0350 h5         1 F99       0.060800
     38 H17        -30.8580    13.9920   105.8230 h1         1 F99       0.082200
     39 H18        -30.2350    13.8350   107.4470 h1         1 F99       0.082200
     40 H19        -28.6770     9.7470   105.2000 hn         1 F99       0.369800
     41 H21        -29.7680    10.1830   109.6530 ho         1 F99       0.407000
     42 C          -25.5360    17.4120   104.2450 c3         1 F99      -0.045800
@<TRIPOS>BOND
     1     1     2 ar  
     2     1    15 ar  
     3     1    22 1   
     4     2     3 ar  
     5     2     4 1   
     6     3     6 1   
     7     3     8 ar  
     8     4    16 1   
     9     4    17 1   
    10     5     8 ar  
    11     5    15 ar  
    12     5    21 1   
    13     6    16 2   
    14     7    18 2   
    15     8    42 1   
    16     9    10 1   
    17     9    18 1   
    18     9    26 1   
    19     9    27 1   
    20    10    14 1   
    21    10    19 1   
    22    10    28 1   
    23    11    12 1   
    24    11    19 1   
    25    11    29 1   
    26    11    30 1   
    27    12    13 1   
    28    12    31 1   
    29    12    32 1   
    30    13    14 1   
    31    13    33 1   
    32    13    34 1   
    33    14    20 1   
    34    14    35 1   
    35    15    36 1   
    36    16    37 1   
    37    17    18 1   
    38    17    38 1   
    39    17    39 1   
    40    19    40 1   
    41    20    41 1   
    42    23    42 1   
    43    24    42 1   
    44    25    42 1   
@<TRIPOS>SUBSTRUCTURE
     1 F99         1 TEMP              0 ****  ****    0 ROOT
