@<TRIPOS>MOLECULE
F9A
   40    41     1     0     0
SMALL
No Charge or Current Charge


@<TRIPOS>ATOM
      1 O            0.6010     0.5840     1.1910 o          1 F9A      -0.547100
      2 F1           3.9870     2.6680    -0.6170 f          1 F9A      -0.107000
      3 N1           0.1260    -1.3700     0.0790 ns         1 F9A      -0.137000
      4 C2           3.4160     0.4060     0.0200 ca         1 F9A      -0.154300
      5 F2           2.7740     2.4250     1.1570 f          1 F9A      -0.107000
      6 C3           2.4640    -0.6400     0.2600 ca         1 F9A      -0.105600
      7 F3           1.9190     2.0970    -0.8250 f          1 F9A      -0.107000
      8 C4           2.9160    -1.9850     0.2530 ca         1 F9A      -0.099000
      9 C5           4.2640    -2.3010     0.0360 ca         1 F9A      -0.085000
     10 C6           5.1940    -1.2790    -0.1770 ca         1 F9A      -0.101000
     11 C7           4.7750     0.0580    -0.1850 ca         1 F9A      -0.068000
     12 C8           0.9870    -0.3800     0.5410 c          1 F9A       0.613700
     13 C9          -1.2880    -1.5120     0.1340 ca         1 F9A      -0.027000
     14 C10         -2.1620    -0.4750     0.5300 ca         1 F9A      -0.109000
     15 C11         -3.5560    -0.6790     0.5540 ca         1 F9A      -0.058300
     16 C12         -4.0800    -1.9300     0.1750 ca         1 F9A      -0.134000
     17 C13         -3.2200    -2.9630    -0.2270 ca         1 F9A      -0.085000
     18 C14         -1.8310    -2.7520    -0.2490 ca         1 F9A      -0.166000
     19 C15         -4.4870     0.4530     0.9840 c3         1 F9A       0.209100
     20 C16         -4.9060     1.2720    -1.3140 c3         1 F9A       0.150100
     21 C17         -5.2210     2.7720     0.6080 c3         1 F9A       0.150100
     22 HN1          0.5920    -2.1250    -0.4070 hn         1 F9A       0.153000
     23 H4           2.2290    -2.8060     0.4470 ha         1 F9A       0.126000
     24 H5           4.5890    -3.3390     0.0440 ha         1 F9A       0.124000
     25 H6           6.2420    -1.5220    -0.3400 ha         1 F9A       0.125000
     26 H7           5.5270     0.8240    -0.3590 ha         1 F9A       0.136000
     27 H10         -1.7850     0.5040     0.8080 ha         1 F9A       0.163000
     28 H12         -5.1550    -2.1000     0.1870 ha         1 F9A       0.113000
     29 H13         -3.6290    -3.9270    -0.5230 ha         1 F9A       0.112000
     30 H14         -1.1760    -3.5610    -0.5640 ha         1 F9A       0.108000
     31 H15         -4.1760     0.7750     1.9880 h1         1 F9A       0.037700
     32 H15A        -5.5100     0.0620     1.0820 h1         1 F9A       0.037700
     33 H16         -5.9420     0.9090    -1.3220 h1         1 F9A       0.031533
     34 H16A        -4.8450     2.1510    -1.9700 h1         1 F9A       0.031533
     35 H16B        -4.2640     0.4920    -1.7440 h1         1 F9A       0.031533
     36 H17         -4.8270     3.0580     1.5930 h1         1 F9A       0.031533
     37 H17A        -5.1300     3.6420    -0.0560 h1         1 F9A       0.031533
     38 H17B        -6.2880     2.5350     0.7200 h1         1 F9A       0.031533
     39 C1           3.0200     1.8990    -0.0640 c3         1 F9A       0.358300
     40 N2          -4.4780     1.6160     0.0620 n3         1 F9A      -0.708600
@<TRIPOS>BOND
     1     1    12 2   
     2     2    39 1   
     3     3    12 1   
     4     3    13 1   
     5     3    22 1   
     6     4     6 ar  
     7     4    11 ar  
     8     4    39 1   
     9     5    39 1   
    10     6     8 ar  
    11     6    12 1   
    12     7    39 1   
    13     8     9 ar  
    14     8    23 1   
    15     9    10 ar  
    16     9    24 1   
    17    10    11 ar  
    18    10    25 1   
    19    11    26 1   
    20    13    14 ar  
    21    13    18 ar  
    22    14    15 ar  
    23    14    27 1   
    24    15    16 ar  
    25    15    19 1   
    26    16    17 ar  
    27    16    28 1   
    28    17    18 ar  
    29    17    29 1   
    30    18    30 1   
    31    19    31 1   
    32    19    32 1   
    33    19    40 1   
    34    20    33 1   
    35    20    34 1   
    36    20    35 1   
    37    20    40 1   
    38    21    36 1   
    39    21    37 1   
    40    21    38 1   
    41    21    40 1   
@<TRIPOS>SUBSTRUCTURE
     1 F9A         1 TEMP              0 ****  ****    0 ROOT
