@<TRIPOS>MOLECULE
F9A
   40    41     1     0     0
SMALL
abcg2


@<TRIPOS>ATOM
      1 O            0.3890     0.6630     0.9440 o          1 F9A      -0.547100
      2 F1           3.5600     1.9090    -1.9640 f          1 F9A      -0.107000
      3 N1           0.0940    -1.3570    -0.0790 ns         1 F9A      -0.137000
      4 C2           3.1870     0.2880    -0.2990 ca         1 F9A      -0.154300
      5 F2           2.4140     2.5180    -0.2570 f          1 F9A      -0.107000
      6 C3           2.3130    -0.5910     0.3470 ca         1 F9A      -0.105600
      7 F3           1.5480     1.2000    -1.7270 f          1 F9A      -0.107000
      8 C4           2.8290    -1.6940     1.0160 ca         1 F9A      -0.099000
      9 C5           4.1980    -1.9190     1.0620 ca         1 F9A      -0.085000
     10 C6           5.0600    -1.0420     0.4280 ca         1 F9A      -0.101000
     11 C7           4.5550     0.0540    -0.2570 ca         1 F9A      -0.068000
     12 C8           0.8330    -0.3450     0.4280 c          1 F9A       0.613700
     13 C9          -1.2980    -1.5130    -0.1110 ca         1 F9A      -0.027000
     14 C10         -2.2030    -0.5750     0.3770 ca         1 F9A      -0.109000
     15 C11         -3.5730    -0.8190     0.3010 ca         1 F9A      -0.058300
     16 C12         -4.0370    -1.9950    -0.2700 ca         1 F9A      -0.134000
     17 C13         -3.1340    -2.9330    -0.7560 ca         1 F9A      -0.085000
     18 C14         -1.7740    -2.6990    -0.6790 ca         1 F9A      -0.166000
     19 C15         -4.5390     0.1910     0.8680 c3         1 F9A       0.209100
     20 C16         -4.3990     1.7560    -0.9430 c3         1 F9A       0.150100
     21 C17         -5.0030     2.5030     1.2440 c3         1 F9A       0.150100
     22 HN1          0.6120    -2.1070    -0.5120 hn         1 F9A       0.153000
     23 H4           2.1590    -2.3780     1.5220 ha         1 F9A       0.126000
     24 H5           4.5830    -2.7780     1.5940 ha         1 F9A       0.124000
     25 H6           6.1280    -1.2090     0.4550 ha         1 F9A       0.125000
     26 H7           5.2440     0.7170    -0.7620 ha         1 F9A       0.136000
     27 H10         -1.8650     0.3540     0.8050 ha         1 F9A       0.163000
     28 H12         -5.1020    -2.1810    -0.3400 ha         1 F9A       0.113000
     29 H13         -3.4910    -3.8510    -1.2020 ha         1 F9A       0.112000
     30 H14         -1.0760    -3.4330    -1.0650 ha         1 F9A       0.108000
     31 H15         -4.4990     0.1350     1.9610 h1         1 F9A       0.037700
     32 H15A        -5.5670    -0.0960     0.5850 h1         1 F9A       0.037700
     33 H16         -5.4330     1.5850    -1.2810 h1         1 F9A       0.031533
     34 H16A        -4.1270     2.7790    -1.2040 h1         1 F9A       0.031533
     35 H16B        -3.7490     1.0870    -1.5070 h1         1 F9A       0.031533
     36 H17         -4.8120     2.3740     2.3100 h1         1 F9A       0.031533
     37 H17A        -4.7140     3.5190     0.9730 h1         1 F9A       0.031533
     38 H17B        -6.0890     2.4110     1.0840 h1         1 F9A       0.031533
     39 C1           2.6750     1.4790    -1.0580 c3         1 F9A       0.358300
     40 N2          -4.2270     1.5500     0.4800 n3         1 F9A      -0.708600
@<TRIPOS>BOND
     1     1    12 2   
     2     2    39 1   
     3     3    12 1   
     4     3    13 1   
     5     3    22 1   
     6     4     6 ar  
     7     4    11 ar  
     8     4    39 1   
     9     5    39 1   
    10     6     8 ar  
    11     6    12 1   
    12     7    39 1   
    13     8     9 ar  
    14     8    23 1   
    15     9    10 ar  
    16     9    24 1   
    17    10    11 ar  
    18    10    25 1   
    19    11    26 1   
    20    13    14 ar  
    21    13    18 ar  
    22    14    15 ar  
    23    14    27 1   
    24    15    16 ar  
    25    15    19 1   
    26    16    17 ar  
    27    16    28 1   
    28    17    18 ar  
    29    17    29 1   
    30    18    30 1   
    31    19    31 1   
    32    19    32 1   
    33    19    40 1   
    34    20    33 1   
    35    20    34 1   
    36    20    35 1   
    37    20    40 1   
    38    21    36 1   
    39    21    37 1   
    40    21    38 1   
    41    21    40 1   
@<TRIPOS>SUBSTRUCTURE
     1 F9A         1 TEMP              0 ****  ****    0 ROOT
