@<TRIPOS>MOLECULE
F9B
   42    43     1     0     0
SMALL
No Charge or Current Charge


@<TRIPOS>ATOM
      1 N1           3.7080     0.2020    -0.6690 n7         1 F9B      -0.859400
      2 C4          -4.8880    -0.3550     0.1080 ca         1 F9B      -0.006000
      3 C5          -3.5950     0.2080    -0.0130 ca         1 F9B      -0.058000
      4 C6          -3.4600     1.6120    -0.0920 ca         1 F9B      -0.069000
      5 C7          -5.0450    -1.7500     0.1890 ca         1 F9B      -0.139000
      6 C8          -3.9220    -2.5900     0.1500 ca         1 F9B      -0.068000
      7 C10         -2.4620    -0.6400    -0.0530 ca         1 F9B       0.162100
      8 C13          2.5490    -0.7040    -0.4970 c3         1 F9B       0.135800
      9 C15          6.1430     0.5810    -1.1700 c3         1 F9B       0.152100
     10 O2           1.2990     1.0050     0.7610 oh         1 F9B      -0.635000
     11 C12          1.2190     0.0920    -0.3620 c3         1 F9B       0.164300
     12 C14          5.0610    -0.4240    -0.6490 c3         1 F9B       0.182500
     13 O3           6.1590     1.8220    -0.4370 oh         1 F9B      -0.644000
     14 C16          5.4110    -1.0150     0.7610 c3         1 F9B       0.152100
     15 O4           5.0730    -0.1160     1.8370 oh         1 F9B      -0.644000
     16 C11          0.0010    -0.8590    -0.2140 c3         1 F9B       0.128600
     17 O1          -1.2050    -0.0720    -0.1730 os         1 F9B      -0.330100
     18 C9          -2.6350    -2.0410     0.0290 ca         1 F9B      -0.223000
     19 C3          -6.0220     0.4790     0.1490 ca         1 F9B      -0.114000
     20 C2          -5.8760     1.8740     0.0690 ca         1 F9B      -0.094000
     21 C1          -4.5970     2.4390    -0.0510 ca         1 F9B      -0.126000
     22 H1           3.7060     0.8620     0.1220 hn         1 F9B       0.452000
     23 H4          -6.0370    -2.1860     0.2820 ha         1 F9B       0.115000
     24 H5          -4.0500    -3.6690     0.2130 ha         1 F9B       0.109000
     25 H6           2.4730    -1.3830    -1.3570 h1         1 F9B       0.026700
     26 H7           2.6720    -1.3240     0.4010 h1         1 F9B       0.026700
     27 H8           7.1280     0.0990    -1.1180 h1         1 F9B       0.019700
     28 H9           5.9410     0.7840    -2.2310 h1         1 F9B       0.019700
     29 H10          1.3370     0.4590     1.5750 ho         1 F9B       0.436000
     30 H11          1.0800     0.6590    -1.2940 h1         1 F9B       0.101700
     31 H12          5.0760    -1.2660    -1.3540 h1         1 F9B       0.052700
     32 H13          6.8150     2.4050    -0.8770 ho         1 F9B       0.439000
     33 H14          4.8610    -1.9570     0.8890 h1         1 F9B       0.019700
     34 H15          6.4800    -1.2630     0.7910 h1         1 F9B       0.019700
     35 H16          5.3770    -0.5390     2.6690 ho         1 F9B       0.439000
     36 H17         -0.0210    -1.5460    -1.0710 h1         1 F9B       0.037200
     37 H18          0.1090    -1.4550     0.7020 h1         1 F9B       0.037200
     38 H19         -1.7870    -2.7180     0.0020 ha         1 F9B       0.113000
     39 H20         -7.0160     0.0480     0.2420 ha         1 F9B       0.112000
     40 H21         -6.7550     2.5150     0.1000 ha         1 F9B       0.112000
     41 H22         -4.4840     3.5190    -0.1120 ha         1 F9B       0.114000
     42 H3          -2.4790     2.0710    -0.1850 ha         1 F9B       0.132000
@<TRIPOS>BOND
     1     1     8 1   
     2     1    12 1   
     3     1    22 1   
     4     2     3 ar  
     5     2     5 ar  
     6     2    19 ar  
     7     3     4 ar  
     8     3     7 ar  
     9     4    21 ar  
    10     4    42 1   
    11     5     6 ar  
    12     5    23 1   
    13     6    18 ar  
    14     6    24 1   
    15     7    17 1   
    16     7    18 ar  
    17     8    11 1   
    18     8    25 1   
    19     8    26 1   
    20     9    12 1   
    21     9    13 1   
    22     9    27 1   
    23     9    28 1   
    24    10    11 1   
    25    10    29 1   
    26    11    16 1   
    27    11    30 1   
    28    12    14 1   
    29    12    31 1   
    30    13    32 1   
    31    14    15 1   
    32    14    33 1   
    33    14    34 1   
    34    15    35 1   
    35    16    17 1   
    36    16    36 1   
    37    16    37 1   
    38    18    38 1   
    39    19    20 ar  
    40    19    39 1   
    41    20    21 ar  
    42    20    40 1   
    43    21    41 1   
@<TRIPOS>SUBSTRUCTURE
     1 F9B         1 TEMP              0 ****  ****    0 ROOT
