@<TRIPOS>MOLECULE
F9B
   42    43     1     0     0
SMALL
abcg2


@<TRIPOS>ATOM
      1 N1           3.6230     0.3190    -0.4560 n7         1 F9B      -0.859400
      2 C4          -4.7820    -0.3920     0.0830 ca         1 F9B      -0.006000
      3 C5          -3.5030     0.1990    -0.0840 ca         1 F9B      -0.058000
      4 C6          -3.4110     1.5970    -0.2800 ca         1 F9B      -0.069000
      5 C7          -4.8890    -1.7900     0.2830 ca         1 F9B      -0.139000
      6 C8          -3.7630    -2.5610     0.3120 ca         1 F9B      -0.068000
      7 C10         -2.3480    -0.6390    -0.0440 ca         1 F9B       0.162100
      8 C13          2.5020    -0.5650    -0.2230 c3         1 F9B       0.135800
      9 C15          5.9320     0.6600    -1.1310 c3         1 F9B       0.152100
     10 O2           1.1690     1.1980     0.7960 oh         1 F9B      -0.635000
     11 C12          1.1930     0.2150    -0.2160 c3         1 F9B       0.164300
     12 C14          4.8910    -0.3520    -0.6780 c3         1 F9B       0.182500
     13 O3           6.1460     1.6360    -0.1360 oh         1 F9B      -0.644000
     14 C16          5.3560    -1.2520     0.4680 c3         1 F9B       0.152100
     15 O4           5.3870    -0.5330     1.6790 oh         1 F9B      -0.644000
     16 C11          0.0230    -0.7470    -0.1060 c3         1 F9B       0.128600
     17 O1          -1.1760    -0.0050    -0.2060 os         1 F9B      -0.330100
     18 C9          -2.4820    -1.9930     0.1490 ca         1 F9B      -0.223000
     19 C3          -5.9270     0.4380     0.0460 ca         1 F9B      -0.114000
     20 C2          -5.8120     1.7880    -0.1480 ca         1 F9B      -0.094000
     21 C1          -4.5400     2.3720    -0.3110 ca         1 F9B      -0.126000
     22 H1           3.7160     0.9620     0.3200 hn         1 F9B       0.452000
     23 H4          -5.8680    -2.2340     0.4120 ha         1 F9B       0.115000
     24 H5          -3.8400    -3.6300     0.4610 ha         1 F9B       0.109000
     25 H6           2.4690    -1.2990    -1.0340 h1         1 F9B       0.026700
     26 H7           2.5740    -1.1430     0.7130 h1         1 F9B       0.026700
     27 H8           6.8590     0.1220    -1.3740 h1         1 F9B       0.019700
     28 H9           5.5750     1.1150    -2.0630 h1         1 F9B       0.019700
     29 H10          1.2440     0.7600     1.6520 ho         1 F9B       0.436000
     30 H11          1.1150     0.7610    -1.1610 h1         1 F9B       0.101700
     31 H12          4.7610    -1.0250    -1.5350 h1         1 F9B       0.052700
     32 H13          6.6570     2.3480    -0.5280 ho         1 F9B       0.439000
     33 H14          4.6710    -2.1060     0.5370 h1         1 F9B       0.019700
     34 H15          6.3400    -1.6670     0.2100 h1         1 F9B       0.019700
     35 H16          5.4550    -1.1680     2.3970 ho         1 F9B       0.439000
     36 H17          0.0830    -1.4920    -0.9070 h1         1 F9B       0.037200
     37 H18          0.0610    -1.2850     0.8500 h1         1 F9B       0.037200
     38 H19         -1.6210    -2.6460     0.1790 ha         1 F9B       0.113000
     39 H20         -6.9030    -0.0140     0.1760 ha         1 F9B       0.112000
     40 H21         -6.6960     2.4110    -0.1760 ha         1 F9B       0.112000
     41 H22         -4.4560     3.4400    -0.4600 ha         1 F9B       0.114000
     42 H3          -2.4430     2.0610    -0.4050 ha         1 F9B       0.132000
@<TRIPOS>BOND
     1     1     8 1   
     2     1    12 1   
     3     1    22 1   
     4     2     3 ar  
     5     2     5 ar  
     6     2    19 ar  
     7     3     4 ar  
     8     3     7 ar  
     9     4    21 ar  
    10     4    42 1   
    11     5     6 ar  
    12     5    23 1   
    13     6    18 ar  
    14     6    24 1   
    15     7    17 1   
    16     7    18 ar  
    17     8    11 1   
    18     8    25 1   
    19     8    26 1   
    20     9    12 1   
    21     9    13 1   
    22     9    27 1   
    23     9    28 1   
    24    10    11 1   
    25    10    29 1   
    26    11    16 1   
    27    11    30 1   
    28    12    14 1   
    29    12    31 1   
    30    13    32 1   
    31    14    15 1   
    32    14    33 1   
    33    14    34 1   
    34    15    35 1   
    35    16    17 1   
    36    16    36 1   
    37    16    37 1   
    38    18    38 1   
    39    19    20 ar  
    40    19    39 1   
    41    20    21 ar  
    42    20    40 1   
    43    21    41 1   
@<TRIPOS>SUBSTRUCTURE
     1 F9B         1 TEMP              0 ****  ****    0 ROOT
