@<TRIPOS>MOLECULE
F9C
   41    43     1     0     0
SMALL
No Charge or Current Charge


@<TRIPOS>ATOM
      1 C1          71.7640    17.0970    20.8070 ca         1 F9C       0.059700
      2 C2          70.7000    16.8530    19.9080 ca         1 F9C      -0.111900
      3 C3          69.8600    15.7340    20.1130 ca         1 F9C       0.386900
      4 C4          71.0350    15.1170    21.9870 ca         1 F9C       0.353500
      5 C5          71.9080    16.1800    21.8680 ca         1 F9C       0.026400
      6 C6          72.5650    15.1070    23.6200 cc         1 F9C       0.435700
      7 C11         69.7660     7.6590    22.6630 c6         1 F9C       0.151800
      8 C12         69.7530     7.6360    24.2110 c6         1 F9C      -0.111400
      9 C13         68.8260     8.7400    24.7810 c6         1 F9C      -0.112400
     10 C14         69.2280    10.1250    24.2210 c6         1 F9C       0.131300
     11 N           70.0170    14.8640    21.1410 nb         1 F9C      -0.667000
     12 C           72.7010    18.2890    20.6320 c3         1 F9C      -0.056800
     13 O           72.0810    11.5790    22.3210 o          1 F9C      -0.507100
     14 C10         69.2650    10.0820    22.6500 c6         1 F9C       0.188500
     15 C8          70.9720    12.0190    22.6030 c          1 F9C       0.562100
     16 C9          69.6990    11.4220    21.9930 c3         1 F9C      -0.168400
     17 N1          72.8720    16.1910    22.8830 nd         1 F9C      -0.560100
     18 N2          71.4540    14.4470    23.0960 na         1 F9C      -0.272300
     19 N3          70.1490     8.9960    22.1500 n7         1 F9C      -0.850400
     20 Br          70.3700    18.0100    18.4100 br         1 F9C      -0.089100
     21 H1          69.0360    15.5300    19.4300 h4         1 F9C       0.036100
     22 H2          73.0860    14.7600    24.5040 h5         1 F9C       0.064800
     23 H3          68.7660     7.3940    22.2850 h1         1 F9C       0.054700
     24 H4          70.4700     6.9010    22.2870 h1         1 F9C       0.054700
     25 H5          69.4200     6.6500    24.5630 hc         1 F9C       0.048700
     26 H6          70.7740     7.7740    24.5910 hc         1 F9C       0.048700
     27 H7          67.7820     8.5160    24.5170 hc         1 F9C       0.047200
     28 H8          68.8820     8.7410    25.8790 hc         1 F9C       0.047200
     29 H9          70.2390    10.3500    24.5900 h1         1 F9C       0.042700
     30 H10         72.1450    19.2330    20.6680 hc         1 F9C       0.062033
     31 H11         73.4680    18.3330    21.4130 hc         1 F9C       0.062033
     32 H12         73.2210    18.2390    19.6680 hc         1 F9C       0.062033
     33 H13         68.2440     9.8700    22.2970 h1         1 F9C       0.068700
     34 H16         68.8790    12.1360    22.1200 hc         1 F9C       0.079700
     35 H17         69.8640    11.2650    20.9220 hc         1 F9C       0.079700
     36 H18         71.1140     9.1970    22.4430 hn         1 F9C       0.425000
     37 C7          70.8060    13.2040    23.5730 c3         1 F9C      -0.031400
     38 O1          68.3130    11.1220    24.6950 oh         1 F9C      -0.665000
     39 H14         71.2360    12.9070    24.5370 h1         1 F9C       0.088200
     40 H15         69.7380    13.3940    23.7290 h1         1 F9C       0.088200
     41 H20         68.2180    10.9850    25.6630 ho         1 F9C       0.446000
@<TRIPOS>BOND
     1     1     2 ar  
     2     1     5 ar  
     3     1    12 1   
     4     2     3 ar  
     5     2    20 1   
     6     3    11 ar  
     7     3    21 1   
     8     4     5 ar  
     9     4    11 ar  
    10     4    18 1   
    11     5    17 1   
    12     6    17 2   
    13     6    18 1   
    14     6    22 1   
    15     7     8 1   
    16     7    19 1   
    17     7    23 1   
    18     7    24 1   
    19     8     9 1   
    20     8    25 1   
    21     8    26 1   
    22     9    10 1   
    23     9    27 1   
    24     9    28 1   
    25    10    14 1   
    26    10    29 1   
    27    10    38 1   
    28    12    30 1   
    29    12    31 1   
    30    12    32 1   
    31    13    15 2   
    32    14    16 1   
    33    14    19 1   
    34    14    33 1   
    35    15    16 1   
    36    15    37 1   
    37    16    34 1   
    38    16    35 1   
    39    18    37 1   
    40    19    36 1   
    41    37    39 1   
    42    37    40 1   
    43    38    41 1   
@<TRIPOS>SUBSTRUCTURE
     1 F9C         1 TEMP              0 ****  ****    0 ROOT
