@<TRIPOS>MOLECULE
F9C
   41    43     1     0     0
SMALL
bcc


@<TRIPOS>ATOM
      1 C1          72.3510    16.7250    20.7910 ca         1 F9C       0.059700
      2 C2          71.7570    16.4390    19.5640 ca         1 F9C      -0.177200
      3 C3          70.6220    15.6260    19.4490 ca         1 F9C       0.452200
      4 C4          70.5770    15.3360    21.6480 ca         1 F9C       0.418800
      5 C5          71.7090    16.1300    21.8770 ca         1 F9C      -0.038900
      6 C6          71.0700    15.4290    23.7670 cc         1 F9C       0.435700
      7 C11         69.9410     8.0910    22.2250 c6         1 F9C       0.151800
      8 C12         70.7360     7.7680    23.4870 c6         1 F9C      -0.111400
      9 C13         70.0270     8.3320    24.7130 c6         1 F9C      -0.112400
     10 C14         69.7580     9.8230    24.5370 c6         1 F9C       0.108100
     11 N           70.0190    15.0640    20.4850 nb         1 F9C      -0.667000
     12 C           73.5620    17.5780    20.9650 c3         1 F9C      -0.056800
     13 O           70.7760    12.2990    22.7040 o          1 F9C      -0.507100
     14 C10         68.9590    10.0470    23.2480 c6         1 F9C       0.188500
     15 C8          69.6160    12.5300    22.9410 c          1 F9C       0.562100
     16 C9          68.5330    11.4950    23.0250 c3         1 F9C      -0.168400
     17 N1          71.9910    16.1670    23.2190 nd         1 F9C      -0.560100
     18 N2          70.1740    14.9140    22.8830 na         1 F9C      -0.243000
     19 N3          69.6350     9.5060    22.0770 n7         1 F9C      -0.795200
     20 BR          72.4820    17.1580    17.9770 br         1 F9C      -0.089100
     21 H1          70.1950    15.4280    18.4730 h4         1 F9C       0.036100
     22 H2          70.9810    15.2310    24.8260 h5         1 F9C       0.064800
     23 H3          68.9970     7.5360    22.2410 h1         1 F9C       0.054700
     24 H4          70.4820     7.7610    21.3350 h1         1 F9C       0.054700
     25 H5          70.8710     6.6880    23.5840 hc         1 F9C       0.048700
     26 H6          71.7370     8.2040    23.4050 hc         1 F9C       0.048700
     27 H7          69.0730     7.8150    24.8620 hc         1 F9C       0.047200
     28 H8          70.6250     8.1650    25.6140 hc         1 F9C       0.047200
     29 H9          70.7290    10.3310    24.4410 h1         1 F9C       0.042700
     30 H10         73.3930    18.5860    20.5840 hc         1 F9C       0.062033
     31 H11         73.8330    17.6540    22.0160 hc         1 F9C       0.062033
     32 H12         74.4140    17.1650    20.4230 hc         1 F9C       0.062033
     33 H13         68.0240     9.4800    23.3540 h1         1 F9C       0.068700
     34 H16         67.8130    11.8020    23.7880 hc         1 F9C       0.079700
     35 H17         67.9820    11.5570    22.0780 hc         1 F9C       0.079700
     36 H18         70.4990    10.0140    21.9260 hn         1 F9C       0.369800
     37 C7          69.1390    13.9600    23.1540 c3         1 F9C      -0.060700
     38 O1          69.0180    10.3670    25.6100 oh         1 F9C      -0.602800
     39 H14         68.8040    14.0700    24.1880 h1         1 F9C       0.088200
     40 H15         68.2720    14.1600    22.5210 h1         1 F9C       0.088200
     41 H20         69.5090    10.2150    26.4230 ho         1 F9C       0.407000
@<TRIPOS>BOND
     1     1     2 ar  
     2     1     5 ar  
     3     1    12 1   
     4     2     3 ar  
     5     2    20 1   
     6     3    11 ar  
     7     3    21 1   
     8     4     5 ar  
     9     4    11 ar  
    10     4    18 1   
    11     5    17 1   
    12     6    17 2   
    13     6    18 1   
    14     6    22 1   
    15     7     8 1   
    16     7    19 1   
    17     7    23 1   
    18     7    24 1   
    19     8     9 1   
    20     8    25 1   
    21     8    26 1   
    22     9    10 1   
    23     9    27 1   
    24     9    28 1   
    25    10    14 1   
    26    10    29 1   
    27    10    38 1   
    28    12    30 1   
    29    12    31 1   
    30    12    32 1   
    31    13    15 2   
    32    14    16 1   
    33    14    19 1   
    34    14    33 1   
    35    15    16 1   
    36    15    37 1   
    37    16    34 1   
    38    16    35 1   
    39    18    37 1   
    40    19    36 1   
    41    37    39 1   
    42    37    40 1   
    43    38    41 1   
@<TRIPOS>SUBSTRUCTURE
     1 F9C         1 TEMP              0 ****  ****    0 ROOT
