@<TRIPOS>MOLECULE
F9D
   14    13     1     0     0
SMALL
bcc


@<TRIPOS>ATOM
      1 C           18.9120     2.0190    79.8150 c          1 F9D       0.935600
      2 O           18.8650     0.8410    80.2180 o          1 F9D      -0.833800
      3 CA          20.0700     2.3590    78.8410 c3         1 F9D       0.024500
      4 N           19.8330     3.6060    78.1400 n8         1 F9D      -0.886800
      5 CB          20.3140     1.2260    77.8360 c3         1 F9D       0.030700
      6 CG          19.1630     0.9600    76.9840 c1         1 F9D      -0.053100
      7 CD          18.2100     0.7380    76.2820 c1         1 F9D      -0.242500
      8 HA          20.9790     2.3980    79.4660 h1         1 F9D      -0.005300
      9 H           19.3870     4.2470    78.7810 hn         1 F9D       0.326300
     10 H2          20.7120     4.0230    77.8640 hn         1 F9D       0.326300
     11 HB2         20.5840     0.3160    78.3720 hc         1 F9D       0.035200
     12 HB3         21.1710     1.4770    77.2040 hc         1 F9D       0.035200
     13 HG          17.3690     0.5400    75.6600 ha         1 F9D       0.141500
     14 OXT         18.1590     2.9560    80.1450 o          1 F9D      -0.833800
@<TRIPOS>BOND
     1     1     2 1   
     2     1     3 1   
     3     1    14 1   
     4     3     4 1   
     5     3     5 1   
     6     3     8 1   
     7     4     9 1   
     8     4    10 1   
     9     5     6 1   
    10     5    11 1   
    11     5    12 1   
    12     6     7 3   
    13     7    13 1   
@<TRIPOS>SUBSTRUCTURE
     1 F9D         1 TEMP              0 ****  ****    0 ROOT
