@<TRIPOS>MOLECULE
F9D
   14    13     1     0     0
SMALL
No Charge or Current Charge


@<TRIPOS>ATOM
      1 C           18.8540     1.9180    79.8680 c          1 F9D       0.935600
      2 O           19.1210     1.0620    80.7080 o          1 F9D      -0.833800
      3 CA          20.0040     2.3680    78.8550 c3         1 F9D       0.024500
      4 N           19.9020     3.7320    78.1980 n8         1 F9D      -0.886800
      5 CB          20.2640     1.2580    77.8000 c3         1 F9D       0.030700
      6 CG          19.1120     0.9730    76.9290 c1         1 F9D      -0.053100
      7 CD          18.1720     0.7070    76.2150 c1         1 F9D      -0.242500
      8 HA          20.9160     2.4300    79.4640 h1         1 F9D      -0.005300
      9 H           19.8210     4.4520    78.9240 hn         1 F9D       0.326300
     10 H2          20.7800     3.9460    77.7150 hn         1 F9D       0.326300
     11 HB2         20.5490     0.3320    78.3130 hc         1 F9D       0.035200
     12 HB3         21.1200     1.5390    77.1730 hc         1 F9D       0.035200
     13 HG          17.3390     0.4850    75.5840 ha         1 F9D       0.141500
     14 OXT         17.7740     2.5050    79.8610 o          1 F9D      -0.833800
@<TRIPOS>BOND
     1     1     2 1   
     2     1     3 1   
     3     1    14 1   
     4     3     4 1   
     5     3     5 1   
     6     3     8 1   
     7     4     9 1   
     8     4    10 1   
     9     5     6 1   
    10     5    11 1   
    11     5    12 1   
    12     6     7 3   
    13     7    13 1   
@<TRIPOS>SUBSTRUCTURE
     1 F9D         1 TEMP              0 ****  ****    0 ROOT
