@<TRIPOS>MOLECULE
F9G
   17    17     1     0     0
SMALL
abcg2


@<TRIPOS>ATOM
      1 C01          1.3450     1.0750    -0.0760 ca         1 F9G       0.122100
      2 C02         -0.0400     1.1050    -0.1110 ca         1 F9G      -0.101000
      3 C03         -0.7530    -0.0850    -0.0340 ca         1 F9G      -0.013900
      4 C05         -0.1090    -1.3040     0.0730 ca         1 F9G      -0.087000
      5 C06          1.2830    -1.3280     0.1010 ca         1 F9G      -0.153000
      6 C07          2.0170    -0.1540     0.0330 ca         1 F9G       0.055100
      7 C09          4.1130    -1.2580    -0.0870 c3         1 F9G       0.155900
      8 O08          3.3620    -0.0710     0.0700 os         1 F9G      -0.364100
      9 O10          2.0200     2.2360    -0.1400 oh         1 F9G      -0.530100
     10 BR04        -2.6400    -0.0270    -0.0860 br         1 F9G      -0.094100
     11 H1          -0.5400     2.0620    -0.2030 ha         1 F9G       0.146000
     12 H2          -0.6600    -2.2320     0.1320 ha         1 F9G       0.131000
     13 H3           1.7830    -2.2840     0.1880 ha         1 F9G       0.120000
     14 H4           4.0110    -1.9150     0.7800 h1         1 F9G       0.043700
     15 H5           3.8160    -1.8030    -0.9860 h1         1 F9G       0.043700
     16 H6           5.1520    -0.9550    -0.1830 h1         1 F9G       0.043700
     17 H7           2.9670     2.0670    -0.2080 ho         1 F9G       0.482000
@<TRIPOS>BOND
     1     1     2 ar  
     2     1     6 ar  
     3     1     9 1   
     4     2     3 ar  
     5     2    11 1   
     6     3     4 ar  
     7     3    10 1   
     8     4     5 ar  
     9     4    12 1   
    10     5     6 ar  
    11     5    13 1   
    12     6     8 1   
    13     7     8 1   
    14     7    14 1   
    15     7    15 1   
    16     7    16 1   
    17     9    17 1   
@<TRIPOS>SUBSTRUCTURE
     1 F9G         1 TEMP              0 ****  ****    0 ROOT
