@<TRIPOS>MOLECULE
F9G
   17    17     1     0     0
SMALL
No Charge or Current Charge


@<TRIPOS>ATOM
      1 C01          1.3140     1.1120    -0.1070 ca         1 F9G       0.122100
      2 C02         -0.0890     1.1370    -0.0780 ca         1 F9G      -0.101000
      3 C03         -0.8080    -0.0680    -0.0030 ca         1 F9G      -0.013900
      4 C05         -0.1270    -1.2960     0.0440 ca         1 F9G      -0.087000
      5 C06          1.2800    -1.3250     0.0150 ca         1 F9G      -0.153000
      6 C07          2.0090    -0.1160    -0.0610 ca         1 F9G       0.055100
      7 C09          4.1900    -1.2830    -0.0490 c3         1 F9G       0.155900
      8 O08          3.3930    -0.0840    -0.0920 os         1 F9G      -0.364100
      9 O10          2.0140     2.2830    -0.1800 oh         1 F9G      -0.530100
     10 Br04        -2.7200    -0.0360     0.0370 br         1 F9G      -0.094100
     11 H1          -0.6170     2.0870    -0.1140 ha         1 F9G       0.146000
     12 H2          -0.6880    -2.2260     0.1020 ha         1 F9G       0.131000
     13 H3           1.7810    -2.2880     0.0520 ha         1 F9G       0.120000
     14 H4           4.0040    -1.8430     0.8760 h1         1 F9G       0.043700
     15 H5           3.9660    -1.9320    -0.9060 h1         1 F9G       0.043700
     16 H6           5.2580    -1.0320    -0.0850 h1         1 F9G       0.043700
     17 H7           2.9670     2.0380    -0.1880 ho         1 F9G       0.482000
@<TRIPOS>BOND
     1     1     2 ar  
     2     1     6 ar  
     3     1     9 1   
     4     2     3 ar  
     5     2    11 1   
     6     3     4 ar  
     7     3    10 1   
     8     4     5 ar  
     9     4    12 1   
    10     5     6 ar  
    11     5    13 1   
    12     6     8 1   
    13     7     8 1   
    14     7    14 1   
    15     7    15 1   
    16     7    16 1   
    17     9    17 1   
@<TRIPOS>SUBSTRUCTURE
     1 F9G         1 TEMP              0 ****  ****    0 ROOT
