@<TRIPOS>MOLECULE
F9H
   57    61     1     0     0
SMALL
No Charge or Current Charge


@<TRIPOS>ATOM
      1 O01        -34.8170     8.9510    49.2200 o          1 F9H      -0.559100
      2 C02        -34.4500     7.7950    49.0410 c          1 F9H       0.634700
      3 C03        -33.2520     7.5030    48.1660 ca         1 F9H      -0.163600
      4 C04        -32.1800     8.4180    48.1300 ca         1 F9H      -0.042000
      5 C05        -31.0660     8.1740    47.3110 ca         1 F9H      -0.125000
      6 C06        -31.0130     7.0220    46.5110 ca         1 F9H      -0.041000
      7 C07        -32.0840     6.1030    46.5150 ca         1 F9H      -0.199300
      8 C08        -32.0590     4.8550    45.6260 c3         1 F9H       0.358300
      9 F09        -32.5820     3.7770    46.2540 f          1 F9H      -0.108333
     10 F10        -30.8080     4.5100    45.2440 f          1 F9H      -0.108333
     11 F11        -32.7790     5.0430    44.4970 f          1 F9H      -0.108333
     12 C12        -33.2060     6.3610    47.3330 ca         1 F9H      -0.029000
     13 N13        -35.1790     6.6940    49.5510 n          1 F9H      -0.213400
     14 C14        -36.5290     6.7160    49.9700 ca         1 F9H      -0.001000
     15 C15        -36.8150     5.5400    50.6320 ca         1 F9H      -0.179300
     16 C16        -38.1230     5.2700    51.0750 ca         1 F9H      -0.059000
     17 C17        -39.1330     6.2230    50.8380 ca         1 F9H      -0.139000
     18 C18        -38.8380     7.4150    50.1440 ca         1 F9H      -0.068000
     19 C19        -37.5290     7.6630    49.6880 ca         1 F9H      -0.116000
     20 C20        -35.5930     4.6270    50.7450 c5         1 F9H       0.094700
     21 C21        -35.7950     3.3440    49.8530 c          1 F9H       0.641100
     22 N22        -36.2910     2.3180    50.6260 ns         1 F9H      -0.478400
     23 C23        -36.5580     1.0280    50.2490 cc         1 F9H       0.530400
     24 N24        -37.0320     0.0520    51.0670 na         1 F9H      -0.263700
     25 N25        -37.1890    -1.1090    50.3820 nc         1 F9H      -0.201800
     26 N26        -36.8100    -0.8190    49.1660 nd         1 F9H      -0.028000
     27 N27        -36.4150     0.4940    49.0560 nd         1 F9H      -0.377000
     28 O28        -35.5330     3.2410    48.6610 o          1 F9H      -0.490100
     29 N29        -35.2340     4.4450    52.2030 n          1 F9H      -0.439800
     30 C30        -35.7070     5.4100    53.2030 c5         1 F9H       0.061000
     31 C31        -34.7530     5.0350    54.3890 c5         1 F9H       0.172000
     32 C32        -33.6380     6.0880    54.5910 c3         1 F9H      -0.097600
     33 C33        -35.5010     4.8000    55.7200 c3         1 F9H      -0.097600
     34 O34        -34.1100     3.7900    54.0060 os         1 F9H      -0.405100
     35 C35        -34.2870     3.5520    52.6800 c          1 F9H       0.671100
     36 O36        -33.7060     2.7010    52.0300 o          1 F9H      -0.508000
     37 C37        -34.4340     5.5490    50.1530 c5         1 F9H       0.094000
     38 H1         -32.2030     9.3160    48.7450 ha         1 F9H       0.128000
     39 H2         -30.2400     8.8820    47.2960 ha         1 F9H       0.126000
     40 H3         -30.1410     6.8570    45.8800 ha         1 F9H       0.134000
     41 H4         -34.0550     5.6780    47.2990 ha         1 F9H       0.157000
     42 H5         -38.3560     4.3430    51.5940 ha         1 F9H       0.109000
     43 H6         -40.1470     6.0320    51.1800 ha         1 F9H       0.121000
     44 H7         -39.6270     8.1380    49.9470 ha         1 F9H       0.122000
     45 H8         -37.3130     8.5670    49.1250 ha         1 F9H       0.155000
     46 H9         -36.4530     2.5640    51.5920 hn         1 F9H       0.336500
     47 H10        -37.2510     0.1340    52.0520 hn         1 F9H       0.380000
     48 H11        -35.5810     6.4520    52.8780 h1         1 F9H       0.069200
     49 H12        -36.7610     5.2420    53.4590 h1         1 F9H       0.069200
     50 H13        -32.9320     5.7760    55.3700 hc         1 F9H       0.054533
     51 H14        -33.0680     6.2440    53.6670 hc         1 F9H       0.054533
     52 H15        -34.0570     7.0560    54.8890 hc         1 F9H       0.054533
     53 H16        -34.8120     4.4890    56.5150 hc         1 F9H       0.054533
     54 H17        -36.0090     5.7120    56.0540 hc         1 F9H       0.054533
     55 H18        -36.2600     4.0170    55.6120 hc         1 F9H       0.054533
     56 H19        -33.8130     5.0060    49.4320 h1         1 F9H       0.078200
     57 H20        -33.7650     5.9170    50.9420 h1         1 F9H       0.078200
@<TRIPOS>BOND
     1     1     2 2   
     2     2     3 1   
     3     2    13 1   
     4     3     4 ar  
     5     3    12 ar  
     6     4     5 ar  
     7     4    38 1   
     8     5     6 ar  
     9     5    39 1   
    10     6     7 ar  
    11     6    40 1   
    12     7     8 1   
    13     7    12 ar  
    14     8     9 1   
    15     8    10 1   
    16     8    11 1   
    17    12    41 1   
    18    13    14 1   
    19    13    37 1   
    20    14    15 ar  
    21    14    19 ar  
    22    15    16 ar  
    23    15    20 1   
    24    16    17 ar  
    25    16    42 1   
    26    17    18 ar  
    27    17    43 1   
    28    18    19 ar  
    29    18    44 1   
    30    19    45 1   
    31    20    21 1   
    32    20    29 1   
    33    20    37 1   
    34    21    22 1   
    35    21    28 2   
    36    22    23 1   
    37    22    46 1   
    38    23    24 1   
    39    23    27 2   
    40    24    25 1   
    41    24    47 1   
    42    25    26 2   
    43    26    27 1   
    44    29    30 1   
    45    29    35 1   
    46    30    31 1   
    47    30    48 1   
    48    30    49 1   
    49    31    32 1   
    50    31    33 1   
    51    31    34 1   
    52    32    50 1   
    53    32    51 1   
    54    32    52 1   
    55    33    53 1   
    56    33    54 1   
    57    33    55 1   
    58    34    35 1   
    59    35    36 2   
    60    37    56 1   
    61    37    57 1   
@<TRIPOS>SUBSTRUCTURE
     1 F9H         1 TEMP              0 ****  ****    0 ROOT
