@<TRIPOS>MOLECULE
F9H
   57    61     1     0     0
SMALL
abcg2


@<TRIPOS>ATOM
      1 O01        -35.4760     8.5310    47.8470 o          1 F9H      -0.559100
      2 C02        -34.8360     7.6070    48.3120 c          1 F9H       0.634700
      3 C03        -33.4760     7.2960    47.7720 ca         1 F9H      -0.163600
      4 C04        -32.4960     8.2810    47.7700 ca         1 F9H      -0.042000
      5 C05        -31.2650     8.0280    47.1870 ca         1 F9H      -0.125000
      6 C06        -31.0160     6.8080    46.5760 ca         1 F9H      -0.041000
      7 C07        -32.0030     5.8310    46.5620 ca         1 F9H      -0.199300
      8 C08        -31.7800     4.5280    45.8580 c3         1 F9H       0.358300
      9 F09        -32.3430     3.5020    46.5060 f          1 F9H      -0.108333
     10 F10        -30.4820     4.2440    45.7180 f          1 F9H      -0.108333
     11 F11        -32.3090     4.5380    44.6250 f          1 F9H      -0.108333
     12 C12        -33.2320     6.0710    47.1640 ca         1 F9H      -0.029000
     13 N13        -35.3030     6.7920    49.2930 n          1 F9H      -0.213400
     14 C14        -36.6080     6.7880    49.8030 ca         1 F9H      -0.001000
     15 C15        -36.7410     5.7750    50.7510 ca         1 F9H      -0.179300
     16 C16        -37.9490     5.5310    51.3750 ca         1 F9H      -0.059000
     17 C17        -39.0380     6.3350    51.0620 ca         1 F9H      -0.139000
     18 C18        -38.9010     7.3500    50.1240 ca         1 F9H      -0.068000
     19 C19        -37.6930     7.5940    49.4800 ca         1 F9H      -0.116000
     20 C20        -35.4430     5.0070    50.8620 c5         1 F9H       0.094700
     21 C21        -35.6690     3.7030    50.0730 c          1 F9H       0.641100
     22 N22        -36.2550     2.7090    50.8070 ns         1 F9H      -0.478400
     23 C23        -36.6720     1.5030    50.3180 cc         1 F9H       0.530400
     24 N24        -37.1640     0.5400    51.1040 na         1 F9H      -0.263700
     25 N25        -37.4870    -0.4970    50.3420 nc         1 F9H      -0.201800
     26 N26        -37.1980    -0.1710    49.1510 nd         1 F9H      -0.028000
     27 N27        -36.6900     1.0640    49.0830 nd         1 F9H      -0.377000
     28 O28        -35.4350     3.6270    48.8940 o          1 F9H      -0.490100
     29 N29        -35.0580     4.7230    52.2210 n          1 F9H      -0.439800
     30 C30        -35.3100     5.6080    53.3430 c5         1 F9H       0.061000
     31 C31        -34.5650     4.8620    54.4580 c5         1 F9H       0.172000
     32 C32        -33.8720     5.7880    55.4310 c3         1 F9H      -0.097600
     33 C33        -35.4650     3.8600    55.1600 c3         1 F9H      -0.097600
     34 O34        -33.5540     4.1210    53.7190 os         1 F9H      -0.405100
     35 C35        -33.9010     4.0240    52.4420 c          1 F9H       0.671100
     36 O36        -33.2810     3.3980    51.6190 o          1 F9H      -0.508000
     37 C37        -34.4580     5.9290    50.1220 c5         1 F9H       0.094000
     38 H1         -32.6880     9.2410    48.2320 ha         1 F9H       0.128000
     39 H2         -30.4950     8.7870    47.2010 ha         1 F9H       0.126000
     40 H3         -30.0520     6.6340    46.1170 ha         1 F9H       0.134000
     41 H4         -34.0050     5.3120    47.1640 ha         1 F9H       0.157000
     42 H5         -38.0540     4.7330    52.1000 ha         1 F9H       0.109000
     43 H6         -39.9900     6.1680    51.5480 ha         1 F9H       0.121000
     44 H7         -39.7520     7.9740    49.8840 ha         1 F9H       0.122000
     45 H8         -37.6160     8.3900    48.7600 ha         1 F9H       0.155000
     46 H9         -36.3610     2.8580    51.8030 hn         1 F9H       0.336500
     47 H10        -37.3010     0.5200    52.1060 hn         1 F9H       0.380000
     48 H11        -34.8980     6.6080    53.1680 h1         1 F9H       0.069200
     49 H12        -36.3700     5.7050    53.5660 h1         1 F9H       0.069200
     50 H13        -33.3240     5.2270    56.1870 hc         1 F9H       0.054533
     51 H14        -33.1810     6.4580    54.9190 hc         1 F9H       0.054533
     52 H15        -34.6170     6.3980    55.9430 hc         1 F9H       0.054533
     53 H16        -34.8890     3.2280    55.8370 hc         1 F9H       0.054533
     54 H17        -36.2160     4.3880    55.7480 hc         1 F9H       0.054533
     55 H18        -35.9880     3.2190    54.4470 hc         1 F9H       0.054533
     56 H19        -33.7280     5.3800    49.5390 h1         1 F9H       0.078200
     57 H20        -33.9230     6.5420    50.8520 h1         1 F9H       0.078200
@<TRIPOS>BOND
     1     1     2 2   
     2     2     3 1   
     3     2    13 1   
     4     3     4 ar  
     5     3    12 ar  
     6     4     5 ar  
     7     4    38 1   
     8     5     6 ar  
     9     5    39 1   
    10     6     7 ar  
    11     6    40 1   
    12     7     8 1   
    13     7    12 ar  
    14     8     9 1   
    15     8    10 1   
    16     8    11 1   
    17    12    41 1   
    18    13    14 1   
    19    13    37 1   
    20    14    15 ar  
    21    14    19 ar  
    22    15    16 ar  
    23    15    20 1   
    24    16    17 ar  
    25    16    42 1   
    26    17    18 ar  
    27    17    43 1   
    28    18    19 ar  
    29    18    44 1   
    30    19    45 1   
    31    20    21 1   
    32    20    29 1   
    33    20    37 1   
    34    21    22 1   
    35    21    28 2   
    36    22    23 1   
    37    22    46 1   
    38    23    24 1   
    39    23    27 2   
    40    24    25 1   
    41    24    47 1   
    42    25    26 2   
    43    26    27 1   
    44    29    30 1   
    45    29    35 1   
    46    30    31 1   
    47    30    48 1   
    48    30    49 1   
    49    31    32 1   
    50    31    33 1   
    51    31    34 1   
    52    32    50 1   
    53    32    51 1   
    54    32    52 1   
    55    33    53 1   
    56    33    54 1   
    57    33    55 1   
    58    34    35 1   
    59    35    36 2   
    60    37    56 1   
    61    37    57 1   
@<TRIPOS>SUBSTRUCTURE
     1 F9H         1 TEMP              0 ****  ****    0 ROOT
