@<TRIPOS>MOLECULE
F9I
  110   114     1     0     0
SMALL
abcg2


@<TRIPOS>ATOM
      1 O1         -13.0820    49.4640     7.0640 oh         1 F9I      -0.649000
      2 C5         -16.6650    49.4550     8.0830 c6         1 F9I       0.160300
      3 C6         -16.2650    49.3020     4.8540 c          1 F9I       0.596100
      4 C7         -16.1510    49.9800     3.5160 c3         1 F9I      -0.170100
      5 C8         -15.0650    49.5350    10.0370 c6         1 F9I       0.161300
      6 C4         -15.4400    49.2370     7.1840 c6         1 F9I       0.046700
      7 C3         -14.1850    49.7930     7.8490 c6         1 F9I       0.384300
      8 C10        -16.4120    49.0020     9.5230 c6         1 F9I       0.155300
      9 C11        -18.2430    48.6880    11.0940 c6         1 F9I       0.397300
     10 C12        -18.6680    49.4140    12.3720 c6         1 F9I       0.133300
     11 C13        -20.3350    47.5410    10.9620 c6         1 F9I       0.180300
     12 C14        -21.3940    47.2490     9.9120 c3         1 F9I       0.222600
     13 C15        -20.8840    48.2000    12.2250 c6         1 F9I       0.148300
     14 C16        -19.7160    48.5940    13.1240 c6         1 F9I       0.108300
     15 C17        -19.9160    48.9730    15.5250 c6         1 F9I       0.258000
     16 C18        -20.7680    47.6900    15.8540 c          1 F9I       0.700000
     17 C19        -20.1870    50.1710    16.4310 c6         1 F9I      -0.085400
     18 C20        -19.4860    50.0910    17.7850 c6         1 F9I       0.168300
     19 C21        -18.0070    49.7280    17.6040 c6         1 F9I       0.028700
     20 C23        -15.4690    49.7440    20.4410 c3         1 F9I      -0.174100
     21 C24        -17.9580    48.4270    16.8000 c6         1 F9I       0.153300
     22 C25        -16.5840    47.8330    16.5370 c3         1 F9I       0.143300
     23 C26        -16.7150    46.5810    15.6470 c3         1 F9I       0.178300
     24 C27        -15.3880    45.8440    15.5070 c3         1 F9I       0.202800
     25 C28        -12.3860    47.2810    16.0270 ca         1 F9I      -0.310500
     26 C29        -12.1420    48.6290    15.9370 ca         1 F9I       0.028000
     27 C30        -11.8600    49.3740    17.1030 ca         1 F9I      -0.056000
     28 C31        -11.8450    48.7080    18.3660 ca         1 F9I       0.005000
     29 C32        -12.0860    47.3130    18.4100 ca         1 F9I      -0.127000
     30 C33        -12.3520    46.6050    17.2680 ca         1 F9I      -0.028000
     31 C34        -11.6180    50.7690    17.0540 ca         1 F9I      -0.064000
     32 C35        -11.3800    51.4740    18.2050 ca         1 F9I      -0.121000
     33 C36        -11.3690    50.8160    19.4560 ca         1 F9I      -0.091000
     34 C37        -11.5940    49.4660    19.5350 ca         1 F9I      -0.119000
     35 N4         -15.6000    49.8640     5.8760 ns         1 F9I      -0.492900
     36 N5         -17.3320    49.6180    18.8850 ns         1 F9I      -0.492900
     37 N6         -14.5500    46.5730    14.5380 n7         1 F9I      -0.841300
     38 O10        -22.8880    44.9440     8.6090 o          1 F9I      -0.725867
     39 O11        -24.4200    45.1610    10.5070 o          1 F9I      -0.725867
     40 O12        -24.1760    46.9930     8.8990 o          1 F9I      -0.725867
     41 O13        -21.6700    49.3310    11.8660 oh         1 F9I      -0.709000
     42 O14        -20.2180    49.3960    14.2090 os         1 F9I      -0.464000
     43 O15        -21.9670    47.8940    16.1140 o          1 F9I      -0.692500
     44 O16        -20.1900    46.5720    15.7730 o          1 F9I      -0.692500
     45 O17        -18.5300    48.6840    15.5240 os         1 F9I      -0.501000
     46 O18        -19.6550    51.3630    18.4040 oh         1 F9I      -0.659000
     47 O19        -15.3150    50.3140    18.1250 o          1 F9I      -0.637100
     48 O2         -17.8070    48.7860     7.5660 oh         1 F9I      -0.702000
     49 O20        -15.7280    48.7620    15.8770 oh         1 F9I      -0.761000
     50 O21        -17.6600    45.6760    16.1840 oh         1 F9I      -0.713000
     51 O22        -12.6260    45.0090    14.7400 o          1 F9I      -0.559000
     52 O23        -12.4400    47.1200    13.4150 o          1 F9I      -0.559000
     53 O3         -16.9420    48.2730     5.0000 o          1 F9I      -0.611100
     54 O4         -14.0250    49.1980     9.1180 os         1 F9I      -0.476000
     55 O6         -17.4400    49.5510    10.3570 os         1 F9I      -0.444000
     56 O7         -17.5170    49.6760    13.1580 oh         1 F9I      -0.759000
     57 O8         -19.3870    48.3800    10.3080 os         1 F9I      -0.475000
     58 O9         -22.3990    46.4280    10.5210 os         1 F9I      -0.604700
     59 S1         -23.5650    45.8360     9.5440 s6         1 F9I       1.531300
     60 S2         -12.9270    46.4120    14.5830 sy         1 F9I       1.162600
     61 H1         -12.3270    49.9960     7.3490 ho         1 F9I       0.447000
     62 H2         -16.8660    50.5340     8.1170 h1         1 F9I       0.043700
     63 H3         -17.1510    50.1540     3.1200 hc         1 F9I       0.057033
     64 H4         -15.6080    50.9230     3.5630 hc         1 F9I       0.057033
     65 H5         -15.6330    49.3050     2.8320 hc         1 F9I       0.057033
     66 H6         -15.1460    50.6280    10.1160 h1         1 F9I       0.038700
     67 H7         -15.2890    48.1640     7.0390 h1         1 F9I       0.102700
     68 H8         -14.2690    50.8840     7.9710 h2         1 F9I       0.008700
     69 H9         -16.4280    47.9120     9.5690 h1         1 F9I       0.089700
     70 H10        -17.7050    47.7630    11.3410 h2         1 F9I       0.035700
     71 H11        -19.1260    50.3610    12.0660 h1         1 F9I       0.073700
     72 H12        -19.8550    46.6010    11.2640 h1         1 F9I       0.045700
     73 H13        -20.9360    46.7240     9.0730 h1         1 F9I       0.053200
     74 H14        -21.8380    48.1810     9.5610 h1         1 F9I       0.053200
     75 H15        -21.5000    47.4680    12.7560 h1         1 F9I       0.097700
     76 H16        -19.2570    47.6830    13.5110 h1         1 F9I       0.081700
     77 H17        -19.8070    51.0530    15.9100 hc         1 F9I       0.077200
     78 H18        -21.2590    50.2860    16.5770 hc         1 F9I       0.077200
     79 H19        -19.9530    49.3140    18.4040 h1         1 F9I       0.041700
     80 H20        -17.5130    50.5170    17.0370 h1         1 F9I       0.101700
     81 H21        -14.6870    48.9850    20.4020 hc         1 F9I       0.057033
     82 H22        -15.0040    50.6810    20.7500 hc         1 F9I       0.057033
     83 H23        -16.2220    49.4530    21.1710 hc         1 F9I       0.057033
     84 H24        -18.5470    47.6740    17.3310 h1         1 F9I       0.074700
     85 H25        -16.1490    47.5290    17.4950 h1         1 F9I       0.022700
     86 H26        -17.0310    46.9080    14.6500 h1         1 F9I       0.080700
     87 H27        -15.5760    44.8420    15.1260 h1         1 F9I       0.057700
     88 H28        -14.9070    45.7580    16.4850 h1         1 F9I       0.057700
     89 H29        -12.1800    49.1330    14.9800 ha         1 F9I       0.138000
     90 H30        -12.0610    46.8080    19.3680 ha         1 F9I       0.108000
     91 H31        -12.5300    45.5400    17.3060 ha         1 F9I       0.134000
     92 H32        -11.6310    51.2680    16.0920 ha         1 F9I       0.119000
     93 H33        -11.2010    52.5410    18.1620 ha         1 F9I       0.109000
     94 H34        -11.1830    51.3880    20.3560 ha         1 F9I       0.103000
     95 H35        -11.5870    48.9600    20.4920 ha         1 F9I       0.106000
     96 H36        -13.7000    49.4560    11.6610 h1         1 F9I       0.048700
     97 H37        -15.4090    49.3290    12.1280 h1         1 F9I       0.048700
     98 H38        -15.0630    50.6970     5.6920 hn         1 F9I       0.305500
     99 H39        -17.8370    49.2210    19.6640 hn         1 F9I       0.308500
    100 H40        -14.7850    47.5650    14.5220 hn         1 F9I       0.506000
    101 H41        -21.8890    49.7920    12.6870 ho         1 F9I       0.506000
    102 H43        -19.3390    51.3090    19.3150 ho         1 F9I       0.423000
    103 H44        -17.5980    48.4620     6.6670 ho         1 F9I       0.531000
    104 H45        -15.4550    49.4250    16.5450 ho         1 F9I       0.539000
    105 H46        -18.5650    46.0290    15.9980 ho         1 F9I       0.535000
    106 H47        -13.9230    47.3230    12.0510 ho         1 F9I       0.522000
    107 H48        -17.6900    49.4050    14.0780 ho         1 F9I       0.538000
    108 C22        -16.0310    49.9180    19.0560 c          1 F9I       0.595100
    109 C9         -14.6620    49.0090    11.3980 c3         1 F9I       0.165600
    110 O5         -14.5580    47.5860    11.3680 oh         1 F9I      -0.729000
@<TRIPOS>BOND
     1     1     7 1   
     2     1    61 1   
     3     2     6 1   
     4     2     8 1   
     5     2    48 1   
     6     2    62 1   
     7     3     4 1   
     8     3    35 1   
     9     3    53 2   
    10     4    63 1   
    11     4    64 1   
    12     4    65 1   
    13     5     8 1   
    14     5    54 1   
    15     5    66 1   
    16     5   109 1   
    17     6     7 1   
    18     6    35 1   
    19     6    67 1   
    20     7    54 1   
    21     7    68 1   
    22     8    55 1   
    23     8    69 1   
    24     9    10 1   
    25     9    55 1   
    26     9    57 1   
    27     9    70 1   
    28    10    14 1   
    29    10    56 1   
    30    10    71 1   
    31    11    12 1   
    32    11    13 1   
    33    11    57 1   
    34    11    72 1   
    35    12    58 1   
    36    12    73 1   
    37    12    74 1   
    38    13    14 1   
    39    13    41 1   
    40    13    75 1   
    41    14    42 1   
    42    14    76 1   
    43    15    16 1   
    44    15    17 1   
    45    15    42 1   
    46    15    45 1   
    47    16    43 1   
    48    16    44 1   
    49    17    18 1   
    50    17    77 1   
    51    17    78 1   
    52    18    19 1   
    53    18    46 1   
    54    18    79 1   
    55    19    21 1   
    56    19    36 1   
    57    19    80 1   
    58    20    81 1   
    59    20    82 1   
    60    20    83 1   
    61    20   108 1   
    62    21    22 1   
    63    21    45 1   
    64    21    84 1   
    65    22    23 1   
    66    22    49 1   
    67    22    85 1   
    68    23    24 1   
    69    23    50 1   
    70    23    86 1   
    71    24    37 1   
    72    24    87 1   
    73    24    88 1   
    74    25    26 ar  
    75    25    30 ar  
    76    25    60 1   
    77    26    27 ar  
    78    26    89 1   
    79    27    28 ar  
    80    27    31 ar  
    81    28    29 ar  
    82    28    34 ar  
    83    29    30 ar  
    84    29    90 1   
    85    30    91 1   
    86    31    32 ar  
    87    31    92 1   
    88    32    33 ar  
    89    32    93 1   
    90    33    34 ar  
    91    33    94 1   
    92    34    95 1   
    93    35    98 1   
    94    36    99 1   
    95    36   108 1   
    96    37    60 1   
    97    37   100 1   
    98    38    59 1   
    99    39    59 1   
   100    40    59 1   
   101    41   101 1   
   102    46   102 1   
   103    47   108 2   
   104    48   103 1   
   105    49   104 1   
   106    50   105 1   
   107    51    60 2   
   108    52    60 2   
   109    56   107 1   
   110    58    59 1   
   111    96   109 1   
   112    97   109 1   
   113   106   110 1   
   114   109   110 1   
@<TRIPOS>SUBSTRUCTURE
     1 F9I         1 TEMP              0 ****  ****    0 ROOT
