@<TRIPOS>MOLECULE
F9I
  110   114     1     0     0
SMALL
No Charge or Current Charge


@<TRIPOS>ATOM
      1 O1         -12.3670    49.5000     9.1160 oh         1 F9I      -0.649000
      2 C5         -16.0080    50.5280     9.4060 c6         1 F9I       0.160300
      3 C6         -15.0630    50.8470     6.2660 c          1 F9I       0.596100
      4 C7         -14.4450    51.6900     5.1610 c3         1 F9I      -0.170100
      5 C8         -14.9460    49.7440    11.5910 c6         1 F9I       0.161300
      6 C4         -14.7180    50.0430     8.6640 c6         1 F9I       0.046700
      7 C3         -13.5310    50.0650     9.6780 c6         1 F9I       0.384300
      8 C10        -16.2370    49.7090    10.7220 c6         1 F9I       0.155300
      9 C11        -18.3300    49.1890    11.8770 c6         1 F9I       0.397300
     10 C12        -19.0880    49.6090    13.1850 c6         1 F9I       0.133300
     11 C13        -20.2610    47.9650    11.0640 c6         1 F9I       0.180300
     12 C14        -21.1060    47.7620     9.7720 c3         1 F9I       0.222600
     13 C15        -21.1280    48.3120    12.3230 c6         1 F9I       0.148300
     14 C16        -20.1630    48.5300    13.5220 c6         1 F9I       0.108300
     15 C17        -20.6140    48.0950    15.9180 c6         1 F9I       0.258000
     16 C18        -21.2640    46.6150    15.7840 c          1 F9I       0.700000
     17 C19        -21.2110    48.9020    17.1150 c6         1 F9I      -0.085400
     18 C20        -20.5970    48.5420    18.4950 c6         1 F9I       0.168300
     19 C21        -19.0400    48.5480    18.4410 c6         1 F9I       0.028700
     20 C23        -16.7810    48.1160    21.5530 c3         1 F9I      -0.174100
     21 C24        -18.6710    47.5450    17.3240 c6         1 F9I       0.153300
     22 C25        -17.1700    47.1490    17.1310 c3         1 F9I       0.143300
     23 C26        -17.0020    46.1450    15.9280 c3         1 F9I       0.178300
     24 C27        -15.5410    45.6290    15.7790 c3         1 F9I       0.202800
     25 C28        -12.3290    47.9910    15.0900 ca         1 F9I      -0.310500
     26 C29        -11.6670    47.8720    13.8500 ca         1 F9I       0.028000
     27 C30        -11.1370    49.0140    13.2200 ca         1 F9I      -0.056000
     28 C31        -11.2760    50.2810    13.8270 ca         1 F9I       0.005000
     29 C32        -11.9320    50.3960    15.0660 ca         1 F9I      -0.127000
     30 C33        -12.4540    49.2570    15.7010 ca         1 F9I      -0.028000
     31 C34        -10.4690    48.8980    11.9850 ca         1 F9I      -0.064000
     32 C35         -9.9490    50.0430    11.3560 ca         1 F9I      -0.121000
     33 C36        -10.0960    51.3050    11.9550 ca         1 F9I      -0.091000
     34 C37        -10.7580    51.4240    13.1890 ca         1 F9I      -0.119000
     35 N4         -14.4000    50.8700     7.4670 ns         1 F9I      -0.492900
     36 N5         -18.4380    48.2100    19.7530 ns         1 F9I      -0.492900
     37 N6         -14.6280    46.7220    15.3920 n7         1 F9I      -0.841300
     38 O10        -21.8330    45.9540     7.5290 o          1 F9I      -0.725867
     39 O11        -23.5300    44.9630     9.0260 o          1 F9I      -0.725867
     40 O12        -23.6770    47.3470     8.3930 o          1 F9I      -0.725867
     41 O13        -21.9470    49.4920    12.1530 oh         1 F9I      -0.709000
     42 O14        -20.8770    48.9050    14.7330 os         1 F9I      -0.464000
     43 O15        -22.1680    46.4910    14.9650 o          1 F9I      -0.692500
     44 O16        -20.4880    45.6690    15.9090 o          1 F9I      -0.692500
     45 O17        -19.1630    48.0710    16.0640 os         1 F9I      -0.501000
     46 O18        -21.0650    49.4640    19.4860 oh         1 F9I      -0.659000
     47 O19        -16.4420    49.2480    19.4470 o          1 F9I      -0.637100
     48 O2         -17.1560    50.4550     8.5370 oh         1 F9I      -0.702000
     49 O20        -16.3060    48.2990    16.9730 oh         1 F9I      -0.761000
     50 O21        -17.8870    45.0070    16.0760 oh         1 F9I      -0.713000
     51 O22        -13.0620    46.6980    17.3200 o          1 F9I      -0.559000
     52 O23        -12.5570    45.3320    15.2030 o          1 F9I      -0.559000
     53 O3         -16.0930    50.2070     6.1200 o          1 F9I      -0.611100
     54 O4         -13.8220    49.2600    10.8180 os         1 F9I      -0.476000
     55 O6         -17.3870    50.2000    11.4630 os         1 F9I      -0.444000
     56 O7         -18.2230    49.8250    14.3250 oh         1 F9I      -0.759000
     57 O8         -19.2810    49.0030    10.8060 os         1 F9I      -0.475000
     58 O9         -21.9020    46.5700     9.9030 os         1 F9I      -0.604700
     59 S1         -22.8160    46.1740     8.5990 s6         1 F9I       1.531300
     60 S2         -13.0440    46.5440    15.8650 sy         1 F9I       1.162600
     61 H1         -11.8990    49.1360     9.8950 ho         1 F9I       0.447000
     62 H2         -15.8450    51.5770     9.6950 h1         1 F9I       0.043700
     63 H3         -15.0220    51.6540     4.2300 hc         1 F9I       0.057033
     64 H4         -14.3210    52.7170     5.5210 hc         1 F9I       0.057033
     65 H5         -13.4080    51.3700     5.0070 hc         1 F9I       0.057033
     66 H6         -14.7430    50.7870    11.8750 h1         1 F9I       0.038700
     67 H7         -14.8620    49.0020     8.3410 h1         1 F9I       0.102700
     68 H8         -13.3230    51.0960    10.0010 h2         1 F9I       0.008700
     69 H9         -16.4160    48.6630    10.4290 h1         1 F9I       0.089700
     70 H10        -17.8000    48.2430    12.0700 h2         1 F9I       0.035700
     71 H11        -19.6150    50.5460    12.9560 h1         1 F9I       0.073700
     72 H12        -19.7190    47.0270    11.2520 h1         1 F9I       0.045700
     73 H13        -20.4130    47.6780     8.9240 h1         1 F9I       0.053200
     74 H14        -21.7340    48.6490     9.6130 h1         1 F9I       0.053200
     75 H15        -21.7630    47.4410    12.5440 h1         1 F9I       0.097700
     76 H16        -19.6460    47.5710    13.6850 h1         1 F9I       0.081700
     77 H17        -21.0520    49.9730    16.9300 hc         1 F9I       0.077200
     78 H18        -22.2980    48.7590    17.1460 hc         1 F9I       0.077200
     79 H19        -20.9270    47.5260    18.7610 h1         1 F9I       0.041700
     80 H20        -18.6960    49.5500    18.1410 h1         1 F9I       0.101700
     81 H21        -16.8920    47.0270    21.6050 hc         1 F9I       0.057033
     82 H22        -15.7690    48.4330    21.8310 hc         1 F9I       0.057033
     83 H23        -17.5280    48.4620    22.2770 hc         1 F9I       0.057033
     84 H24        -19.1820    46.6100    17.5820 h1         1 F9I       0.074700
     85 H25        -16.8680    46.6120    18.0400 h1         1 F9I       0.022700
     86 H26        -17.2530    46.6810    15.0010 h1         1 F9I       0.080700
     87 H27        -15.5060    44.8240    15.0330 h1         1 F9I       0.057700
     88 H28        -15.2490    45.1920    16.7450 h1         1 F9I       0.057700
     89 H29        -11.5710    46.9000    13.3680 ha         1 F9I       0.138000
     90 H30        -12.0400    51.3690    15.5390 ha         1 F9I       0.108000
     91 H31        -12.9640    49.3640    16.6580 ha         1 F9I       0.134000
     92 H32        -10.3490    47.9240    11.5160 ha         1 F9I       0.119000
     93 H33         -9.4300    49.9510    10.4040 ha         1 F9I       0.109000
     94 H34         -9.6940    52.1890    11.4660 ha         1 F9I       0.103000
     95 H35        -10.8640    52.4040    13.6500 ha         1 F9I       0.106000
     96 H36        -14.1230    49.1390    13.4800 h1         1 F9I       0.048700
     97 H37        -15.8640    49.3110    13.5160 h1         1 F9I       0.048700
     98 H38        -13.5470    51.4190     7.4890 hn         1 F9I       0.305500
     99 H39        -18.9640    47.6290    20.3980 hn         1 F9I       0.308500
    100 H40        -14.8940    47.5080    16.0070 hn         1 F9I       0.506000
    101 H41        -22.1870    49.7670    13.0690 ho         1 F9I       0.506000
    102 H43        -20.3650    49.5120    20.1720 ho         1 F9I       0.423000
    103 H44        -16.8000    50.3480     7.6090 ho         1 F9I       0.531000
    104 H45        -16.3330    48.7780    17.8550 ho         1 F9I       0.539000
    105 H46        -18.8320    45.3270    15.9630 ho         1 F9I       0.535000
    106 H47        -14.9590    47.0960    13.6300 ho         1 F9I       0.522000
    107 H48        -18.6000    49.2410    15.0450 ho         1 F9I       0.538000
    108 C22        -17.1810    48.5890    20.1640 c          1 F9I       0.595100
    109 C9         -15.0360    48.9200    12.9150 c3         1 F9I       0.165600
    110 O5         -15.1720    47.4940    12.7410 oh         1 F9I      -0.729000
@<TRIPOS>BOND
     1     1     7 1   
     2     1    61 1   
     3     2     6 1   
     4     2     8 1   
     5     2    48 1   
     6     2    62 1   
     7     3     4 1   
     8     3    35 1   
     9     3    53 2   
    10     4    63 1   
    11     4    64 1   
    12     4    65 1   
    13     5     8 1   
    14     5    54 1   
    15     5    66 1   
    16     5   109 1   
    17     6     7 1   
    18     6    35 1   
    19     6    67 1   
    20     7    54 1   
    21     7    68 1   
    22     8    55 1   
    23     8    69 1   
    24     9    10 1   
    25     9    55 1   
    26     9    57 1   
    27     9    70 1   
    28    10    14 1   
    29    10    56 1   
    30    10    71 1   
    31    11    12 1   
    32    11    13 1   
    33    11    57 1   
    34    11    72 1   
    35    12    58 1   
    36    12    73 1   
    37    12    74 1   
    38    13    14 1   
    39    13    41 1   
    40    13    75 1   
    41    14    42 1   
    42    14    76 1   
    43    15    16 1   
    44    15    17 1   
    45    15    42 1   
    46    15    45 1   
    47    16    43 1   
    48    16    44 1   
    49    17    18 1   
    50    17    77 1   
    51    17    78 1   
    52    18    19 1   
    53    18    46 1   
    54    18    79 1   
    55    19    21 1   
    56    19    36 1   
    57    19    80 1   
    58    20    81 1   
    59    20    82 1   
    60    20    83 1   
    61    20   108 1   
    62    21    22 1   
    63    21    45 1   
    64    21    84 1   
    65    22    23 1   
    66    22    49 1   
    67    22    85 1   
    68    23    24 1   
    69    23    50 1   
    70    23    86 1   
    71    24    37 1   
    72    24    87 1   
    73    24    88 1   
    74    25    26 ar  
    75    25    30 ar  
    76    25    60 1   
    77    26    27 ar  
    78    26    89 1   
    79    27    28 ar  
    80    27    31 ar  
    81    28    29 ar  
    82    28    34 ar  
    83    29    30 ar  
    84    29    90 1   
    85    30    91 1   
    86    31    32 ar  
    87    31    92 1   
    88    32    33 ar  
    89    32    93 1   
    90    33    34 ar  
    91    33    94 1   
    92    34    95 1   
    93    35    98 1   
    94    36    99 1   
    95    36   108 1   
    96    37    60 1   
    97    37   100 1   
    98    38    59 1   
    99    39    59 1   
   100    40    59 1   
   101    41   101 1   
   102    46   102 1   
   103    47   108 2   
   104    48   103 1   
   105    49   104 1   
   106    50   105 1   
   107    51    60 2   
   108    52    60 2   
   109    56   107 1   
   110    58    59 1   
   111    96   109 1   
   112    97   109 1   
   113   106   110 1   
   114   109   110 1   
@<TRIPOS>SUBSTRUCTURE
     1 F9I         1 TEMP              0 ****  ****    0 ROOT
