@<TRIPOS>MOLECULE
F9J
   50    53     1     0     0
SMALL
abcg2


@<TRIPOS>ATOM
      1 C1          18.0860   -23.2640    43.6640 c3         1 F9J      -0.119400
      2 C2          18.8240   -23.8570    42.5100 cc         1 F9J       0.274300
      3 C3          20.1230   -24.4180    42.5190 cc         1 F9J      -0.244000
      4 C4          20.3460   -24.8130    41.2100 cd         1 F9J       0.260000
      5 N1          19.2270   -24.4930    40.5150 na         1 F9J      -0.064200
      6 N2          18.2810   -23.9040    41.2970 nd         1 F9J      -0.520800
      7 N3          21.4020   -25.4130    40.5580 nu         1 F9J      -0.927900
      8 C5          22.6420   -25.7300    41.0570 ca         1 F9J       0.450900
      9 N4          23.4820   -26.2450    40.1590 nb         1 F9J      -0.333000
     10 C6          24.7280   -26.5570    40.5530 ca         1 F9J       0.414900
     11 C7          25.0860   -26.3010    41.8860 ca         1 F9J      -0.070000
     12 C8          24.1270   -25.7950    42.7490 ca         1 F9J       0.389300
     13 N5          22.8900   -25.5160    42.3500 nb         1 F9J      -0.308000
     14 O1          24.4970   -25.5820    44.0190 os         1 F9J      -0.430300
     15 C9          23.5340   -25.0390    44.9370 c3         1 F9J       0.153000
     16 C10         24.1580   -25.1520    46.3180 c3         1 F9J      -0.091100
     17 C11         23.1790   -23.6030    44.6090 ca         1 F9J       0.097300
     18 N6          24.0130   -22.8810    43.8670 nb         1 F9J      -0.145000
     19 C12         23.6710   -21.6170    43.6160 ca         1 F9J       0.085400
     20 C13         22.4970   -21.0980    44.1260 ca         1 F9J       0.060000
     21 C14         21.6900   -21.9040    44.9070 ca         1 F9J       0.085400
     22 N7          22.0380   -23.1660    45.1460 nb         1 F9J      -0.145000
     23 F1          22.1440   -19.8270    43.8690 f          1 F9J      -0.160000
     24 F2          26.3550   -26.4690    42.3460 f          1 F9J      -0.162000
     25 N8          25.5900   -27.0610    39.6200 nh         1 F9J      -0.762300
     26 C15         25.1450   -27.1660    38.2300 c6         1 F9J       0.175800
     27 C16         26.3540   -27.1580    37.3090 c6         1 F9J       0.143100
     28 O2          27.2780   -28.1930    37.6340 os         1 F9J      -0.453000
     29 C17         27.7310   -28.0530    38.9770 c6         1 F9J       0.143100
     30 C18         26.5760   -28.0950    39.9620 c6         1 F9J       0.175800
     31 H11C        17.0970   -22.9300    43.3520 hc         1 F9J       0.046700
     32 H12C        17.9680   -23.9910    44.4710 hc         1 F9J       0.046700
     33 H13C        18.6260   -22.4080    44.0760 hc         1 F9J       0.046700
     34 H3          20.7940   -24.5150    43.3470 ha         1 F9J       0.166000
     35 H1          19.0520   -24.6400    39.5330 hn         1 F9J       0.367000
     36 HA          21.2920   -25.5980    39.5720 hn         1 F9J       0.512000
     37 H9          22.6190   -25.6270    44.8830 h1         1 F9J       0.088700
     38 H101        23.4630   -24.7700    47.0650 hc         1 F9J       0.058367
     39 H102        24.3770   -26.1960    46.5420 hc         1 F9J       0.058367
     40 H103        25.0820   -24.5740    46.3670 hc         1 F9J       0.058367
     41 H12         24.3330   -21.0120    43.0060 h4         1 F9J       0.043600
     42 H14         20.7640   -21.5310    45.3300 h4         1 F9J       0.043600
     43 H151        24.5680   -28.0880    38.0840 h1         1 F9J       0.064450
     44 H152        24.5030   -26.3230    37.9920 h1         1 F9J       0.064450
     45 H181        26.9540   -27.9480    40.9660 h1         1 F9J       0.064450
     46 H182        26.0910   -29.0780    39.9130 h1         1 F9J       0.064450
     47 H161        26.0370   -27.3270    36.2810 h1         1 F9J       0.057950
     48 H162        26.8580   -26.1850    37.3720 h1         1 F9J       0.057950
     49 H171        28.4120   -28.8810    39.1700 h1         1 F9J       0.057950
     50 H172        28.2760   -27.1070    39.0870 h1         1 F9J       0.057950
@<TRIPOS>BOND
     1     1     2 1   
     2     1    31 1   
     3     1    32 1   
     4     1    33 1   
     5     2     3 1   
     6     2     6 2   
     7     3     4 2   
     8     3    34 1   
     9     4     5 1   
    10     4     7 1   
    11     5     6 1   
    12     5    35 1   
    13     7     8 1   
    14     7    36 1   
    15     8     9 ar  
    16     8    13 ar  
    17     9    10 ar  
    18    10    11 ar  
    19    10    25 1   
    20    11    12 ar  
    21    11    24 1   
    22    12    13 ar  
    23    12    14 1   
    24    14    15 1   
    25    15    16 1   
    26    15    17 1   
    27    15    37 1   
    28    16    38 1   
    29    16    39 1   
    30    16    40 1   
    31    17    18 ar  
    32    17    22 ar  
    33    18    19 ar  
    34    19    20 ar  
    35    19    41 1   
    36    20    21 ar  
    37    20    23 1   
    38    21    22 ar  
    39    21    42 1   
    40    25    26 1   
    41    25    30 1   
    42    26    27 1   
    43    26    43 1   
    44    26    44 1   
    45    27    28 1   
    46    27    47 1   
    47    27    48 1   
    48    28    29 1   
    49    29    30 1   
    50    29    49 1   
    51    29    50 1   
    52    30    45 1   
    53    30    46 1   
@<TRIPOS>SUBSTRUCTURE
     1 F9J         1 TEMP              0 ****  ****    0 ROOT
