@<TRIPOS>MOLECULE
F9J
   50    53     1     0     0
SMALL
No Charge or Current Charge


@<TRIPOS>ATOM
      1 C1          17.8990   -23.8350    43.8180 c3         1 F9J      -0.119400
      2 C2          18.5900   -24.1910    42.5340 cc         1 F9J       0.274300
      3 C3          19.8860   -24.7210    42.5000 cc         1 F9J      -0.244000
      4 C4          20.1930   -24.9150    41.1960 cd         1 F9J       0.260000
      5 N1          19.0580   -24.5050    40.4920 na         1 F9J      -0.064200
      6 N2          18.0440   -24.0420    41.3410 nd         1 F9J      -0.520800
      7 N3          21.3400   -25.4050    40.6180 nu         1 F9J      -0.927900
      8 C5          22.6040   -25.6990    41.0980 ca         1 F9J       0.450900
      9 N4          23.4400   -26.1950    40.1810 nb         1 F9J      -0.333000
     10 C6          24.6870   -26.4890    40.5940 ca         1 F9J       0.414900
     11 C7          25.0830   -26.2540    41.9300 ca         1 F9J      -0.070000
     12 C8          24.1220   -25.7230    42.8090 ca         1 F9J       0.389300
     13 N5          22.8710   -25.4560    42.3860 nb         1 F9J      -0.308000
     14 O1          24.4890   -25.4770    44.1210 os         1 F9J      -0.430300
     15 C9          23.5960   -24.8380    45.0630 c3         1 F9J       0.153000
     16 C10         24.2760   -24.9160    46.4430 c3         1 F9J      -0.091100
     17 C11         23.3010   -23.3900    44.6460 ca         1 F9J       0.097300
     18 N6          24.3400   -22.6340    44.2120 nb         1 F9J      -0.145000
     19 C12         24.0590   -21.3680    43.8380 ca         1 F9J       0.085400
     20 C13         22.7480   -20.8640    43.9000 ca         1 F9J       0.060000
     21 C14         21.7370   -21.7190    44.3700 ca         1 F9J       0.085400
     22 N7          22.0120   -22.9860    44.7470 nb         1 F9J      -0.145000
     23 F1          22.4700   -19.5960    43.5230 f          1 F9J      -0.160000
     24 F2          26.3510   -26.4920    42.3550 f          1 F9J      -0.162000
     25 N8          25.5630   -27.0150    39.6100 nh         1 F9J      -0.762300
     26 C15         25.3570   -26.7100    38.1530 c6         1 F9J       0.175800
     27 C16         26.6460   -26.9600    37.3140 c6         1 F9J       0.143100
     28 O2          27.1670   -28.2890    37.5540 os         1 F9J      -0.453000
     29 C17         27.5010   -28.5110    38.9450 c6         1 F9J       0.143100
     30 C18         26.2460   -28.3310    39.8490 c6         1 F9J       0.175800
     31 H11C        17.0070   -23.2240    43.6350 hc         1 F9J       0.046700
     32 H12C        17.5880   -24.7400    44.3520 hc         1 F9J       0.046700
     33 H13C        18.5690   -23.2670    44.4740 hc         1 F9J       0.046700
     34 H3          20.4960   -24.9300    43.3670 ha         1 F9J       0.166000
     35 H1          18.9470   -24.5180    39.4830 hn         1 F9J       0.367000
     36 HA          21.2680   -25.5640    39.6130 hn         1 F9J       0.512000
     37 H9          22.6500   -25.3950    45.1220 h1         1 F9J       0.088700
     38 H101        23.6400   -24.4580    47.2090 hc         1 F9J       0.058367
     39 H102        24.4540   -25.9600    46.7250 hc         1 F9J       0.058367
     40 H103        25.2380   -24.3890    46.4340 hc         1 F9J       0.058367
     41 H12         24.8890   -20.7580    43.4870 h4         1 F9J       0.043600
     42 H14         20.7010   -21.3930    44.4450 h4         1 F9J       0.043600
     43 H151        24.5460   -27.3330    37.7470 h1         1 F9J       0.064450
     44 H152        25.0610   -25.6590    38.0190 h1         1 F9J       0.064450
     45 H181        26.5600   -28.4360    40.8960 h1         1 F9J       0.064450
     46 H182        25.5470   -29.1550    39.6430 h1         1 F9J       0.064450
     47 H161        26.4230   -26.8470    36.2440 h1         1 F9J       0.057950
     48 H162        27.4130   -26.2180    37.5810 h1         1 F9J       0.057950
     49 H171        27.9030   -29.5270    39.0620 h1         1 F9J       0.057950
     50 H172        28.2830   -27.7990    39.2480 h1         1 F9J       0.057950
@<TRIPOS>BOND
     1     1     2 1   
     2     1    31 1   
     3     1    32 1   
     4     1    33 1   
     5     2     3 1   
     6     2     6 2   
     7     3     4 2   
     8     3    34 1   
     9     4     5 1   
    10     4     7 1   
    11     5     6 1   
    12     5    35 1   
    13     7     8 1   
    14     7    36 1   
    15     8     9 ar  
    16     8    13 ar  
    17     9    10 ar  
    18    10    11 ar  
    19    10    25 1   
    20    11    12 ar  
    21    11    24 1   
    22    12    13 ar  
    23    12    14 1   
    24    14    15 1   
    25    15    16 1   
    26    15    17 1   
    27    15    37 1   
    28    16    38 1   
    29    16    39 1   
    30    16    40 1   
    31    17    18 ar  
    32    17    22 ar  
    33    18    19 ar  
    34    19    20 ar  
    35    19    41 1   
    36    20    21 ar  
    37    20    23 1   
    38    21    22 ar  
    39    21    42 1   
    40    25    26 1   
    41    25    30 1   
    42    26    27 1   
    43    26    43 1   
    44    26    44 1   
    45    27    28 1   
    46    27    47 1   
    47    27    48 1   
    48    28    29 1   
    49    29    30 1   
    50    29    49 1   
    51    29    50 1   
    52    30    45 1   
    53    30    46 1   
@<TRIPOS>SUBSTRUCTURE
     1 F9J         1 TEMP              0 ****  ****    0 ROOT
