@<TRIPOS>MOLECULE
F9K
  112   118     1     0     0
SMALL
No Charge or Current Charge


@<TRIPOS>ATOM
      1 F1           0.7840    60.5720   101.1350 f          1 F9K      -0.179000
      2 C2           0.4460    61.7590   101.6860 ca         1 F9K       0.186000
      3 C3           1.4070    62.5350   102.3480 ca         1 F9K      -0.137300
      4 C4           1.0680    63.7500   102.9130 ca         1 F9K      -0.080300
      5 C5          -0.2480    64.2370   102.8390 ca         1 F9K      -0.104000
      6 C6          -1.2260    63.4680   102.1760 ca         1 F9K      -0.083000
      7 C7          -0.8780    62.2270   101.5990 ca         1 F9K      -0.146000
      8 C8           2.2470    64.4180   103.5730 c5         1 F9K       0.168300
      9 N9           3.3190    63.4120   103.3020 n          1 F9K      -0.415800
     10 C10          2.8630    62.2050   102.5420 c5         1 F9K       0.173300
     11 C11          4.6400    63.6060   103.7090 c          1 F9K       0.643100
     12 O12          5.0120    64.5950   104.3240 o          1 F9K      -0.550000
     13 O13          5.4340    62.5480   103.3450 os         1 F9K      -0.450100
     14 C14          6.8490    62.7010   103.6440 c5         1 F9K       0.177300
     15 C15          7.5260    61.3300   103.3640 c5         1 F9K       0.109000
     16 N16          7.7490    61.3640   101.8960 n          1 F9K      -0.389800
     17 C17          7.4670    62.6960   101.2940 c5         1 F9K       0.031700
     18 C18          7.4900    63.6090   102.5590 c5         1 F9K      -0.111400
     19 C19          8.5740    63.1850   100.3110 c          1 F9K       0.602100
     20 N20          8.0560    64.1200    99.4330 ns         1 F9K      -0.467900
     21 C21          8.8310    64.8220    98.4180 cx         1 F9K      -0.058600
     22 C22          9.6220    63.9780    97.4320 cx         1 F9K      -0.042500
     23 C23          8.3470    64.6470    96.9890 cx         1 F9K      -0.086400
     24 C24         10.9380    64.4530    96.9200 c2         1 F9K      -0.205200
     25 C25         12.0810    64.3960    97.6210 c2         1 F9K      -0.293000
     26 C26          9.3990    66.1940    98.8030 c          1 F9K       0.664100
     27 N27         10.2170    66.1710    99.8850 ns         1 F9K      -0.589300
     28 S28         10.8910    67.4430   100.7340 sy         1 F9K       1.198300
     29 C29         10.6100    67.0400   102.4600 ca         1 F9K      -0.262500
     30 C30         10.8040    65.7330   102.9440 ca         1 F9K       0.309000
     31 C31         10.5000    65.4320   104.2820 ca         1 F9K      -0.153000
     32 C32         10.0210    66.4280   105.1500 ca         1 F9K      -0.077000
     33 C33          9.8380    67.7330   104.6730 ca         1 F9K       0.143000
     34 C34         10.1240    68.0420   103.3350 ca         1 F9K      -0.045000
     35 F35          9.3740    68.6930   105.5020 f          1 F9K      -0.173000
     36 N36         11.2660    64.7000   102.1370 nu         1 F9K      -0.947200
     37 C37         12.6930    64.4430   101.8990 c3         1 F9K       0.173800
     38 C38         12.9620    62.9250   101.9240 c3         1 F9K      -0.096400
     39 C39         12.6960    62.2700   103.3050 c3         1 F9K      -0.074400
     40 C40         13.0380    60.7620   103.3870 c3         1 F9K      -0.070400
     41 C41         12.2550    59.8350   102.4230 c3         1 F9K      -0.071400
     42 C42         10.7150    59.9040   102.5660 c3         1 F9K      -0.079400
     43 C43          9.9920    58.8530   101.6940 c3         1 F9K      -0.085400
     44 C44          8.4390    58.8950   101.7410 c3         1 F9K       0.055700
     45 C45          7.8630    60.2010   101.1040 c          1 F9K       0.605100
     46 O46          7.5570    60.2390    99.9150 o          1 F9K      -0.618100
     47 N47          7.8860    57.7200   101.0330 ns         1 F9K      -0.484900
     48 C48          7.7770    56.4540   101.5630 c          1 F9K       0.621100
     49 O49          8.1400    56.1920   102.7000 o          1 F9K      -0.607100
     50 C50          7.2110    55.3970   100.6220 c6         1 F9K      -0.212700
     51 C51          5.6580    55.3730   100.7120 c6         1 F9K      -0.069400
     52 C52          5.1060    54.0060   100.2780 c6         1 F9K      -0.090400
     53 C53          5.6920    52.8930   101.1690 c6         1 F9K       0.108000
     54 N54          7.1730    52.9290   101.2280 n          1 F9K      -0.403800
     55 C55          7.9220    54.0520   100.8050 c          1 F9K       0.581000
     56 O56          9.1170    53.9560   100.5610 o          1 F9K      -0.575000
     57 C57          7.8680    51.6540   101.5090 c3         1 F9K       0.083300
     58 O58         12.3340    67.3590   100.4790 o          1 F9K      -0.532000
     59 O59         10.1480    68.6670   100.4110 o          1 F9K      -0.532000
     60 O60          9.1110    67.2170    98.1970 o          1 F9K      -0.552100
     61 O61          9.7440    62.8300   100.2970 o          1 F9K      -0.600100
     62 H7          -1.6300    61.6320   101.0880 ha         1 F9K       0.133000
     63 H101         2.9950    61.2810   103.1220 h1         1 F9K       0.083200
     64 H102         3.3870    62.1030   101.5820 h1         1 F9K       0.083200
     65 H5          -0.5100    65.1940   103.2860 ha         1 F9K       0.125000
     66 H81C         2.4720    65.3880   103.1110 h1         1 F9K       0.069700
     67 H82C         2.0820    64.5590   104.6490 h1         1 F9K       0.069700
     68 H6          -2.2500    63.8310   102.1100 ha         1 F9K       0.121000
     69 H14          6.9970    63.0440   104.6780 h1         1 F9K       0.086700
     70 H151         8.4790    61.2480   103.9020 h1         1 F9K       0.069200
     71 H152         6.8800    60.4970   103.6720 h1         1 F9K       0.069200
     72 H181         6.9580    64.5550   102.4070 hc         1 F9K       0.077700
     73 H182         8.5140    63.8650   102.8480 hc         1 F9K       0.077700
     74 H17          6.4890    62.6990   100.7930 h1         1 F9K       0.086700
     75 H20          7.0710    64.3390    99.5390 hn         1 F9K       0.327500
     76 H22          9.5720    62.8970    97.5490 hc         1 F9K       0.101700
     77 H231         7.4820    64.0120    96.8150 hc         1 F9K       0.092700
     78 H232         8.4280    65.4880    96.3040 hc         1 F9K       0.092700
     79 H24         10.9330    64.8610    95.9060 ha         1 F9K       0.187000
     80 H251        13.0250    64.7530    97.2070 ha         1 F9K       0.165500
     81 H252        12.1110    63.9860    98.6320 ha         1 F9K       0.165500
     82 H27         10.4370    65.2970   100.3420 hn         1 F9K       0.383500
     83 H34          9.9600    69.0600   102.9850 ha         1 F9K       0.165000
     84 H31         10.6450    64.4220   104.6550 ha         1 F9K       0.116000
     85 H36         10.7440    63.8320   102.2650 hn         1 F9K       0.448000
     86 H32          9.7920    66.1900   106.1860 ha         1 F9K       0.139000
     87 H371        13.0000    64.8550   100.9280 h1         1 F9K       0.058700
     88 H372        13.3030    64.9240   102.6770 h1         1 F9K       0.058700
     89 H381        12.3530    62.4410   101.1520 hc         1 F9K       0.068200
     90 H382        14.0100    62.7560   101.6470 hc         1 F9K       0.068200
     91 H391        13.2900    62.7970   104.0610 hc         1 F9K       0.030700
     92 H392        11.6470    62.4120   103.5900 hc         1 F9K       0.030700
     93 H401        14.1110    60.6320   103.2020 hc         1 F9K       0.039700
     94 H402        12.8620    60.4230   104.4160 hc         1 F9K       0.039700
     95 H411        12.5330    60.0660   101.3870 hc         1 F9K       0.043200
     96 H412        12.5810    58.8040   102.6040 hc         1 F9K       0.043200
     97 H421        10.4390    59.7550   103.6170 hc         1 F9K       0.046700
     98 H422        10.3820    60.9070   102.2790 hc         1 F9K       0.046700
     99 H431        10.3140    58.9690   100.6510 hc         1 F9K       0.057200
    100 H432        10.3280    57.8590   102.0120 hc         1 F9K       0.057200
    101 H44          8.1130    58.8430   102.7870 h1         1 F9K       0.075700
    102 H47          7.5570    57.8500   100.0820 hn         1 F9K       0.324500
    103 H50          7.4490    55.7460    99.6090 hc         1 F9K       0.073700
    104 H511         5.3390    55.5670   101.7470 hc         1 F9K       0.065700
    105 H512         5.2230    56.1770   100.1010 hc         1 F9K       0.065700
    106 H521         4.0100    53.9990   100.3470 hc         1 F9K       0.054200
    107 H522         5.3590    53.8150    99.2260 hc         1 F9K       0.054200
    108 H531         5.3000    53.0000   102.1900 h1         1 F9K       0.046700
    109 H532         5.3610    51.9160   100.7890 h1         1 F9K       0.046700
    110 H571         8.7210    51.8330   102.1760 h1         1 F9K       0.046700
    111 H572         7.1850    50.9470   101.9970 h1         1 F9K       0.046700
    112 H573         8.2290    51.2150   100.5710 h1         1 F9K       0.046700
@<TRIPOS>BOND
     1     1     2 1   
     2     2     3 ar  
     3     2     7 ar  
     4     3     4 ar  
     5     3    10 1   
     6     4     5 ar  
     7     4     8 1   
     8     5     6 ar  
     9     5    65 1   
    10     6     7 ar  
    11     6    68 1   
    12     7    62 1   
    13     8     9 1   
    14     8    66 1   
    15     8    67 1   
    16     9    10 1   
    17     9    11 1   
    18    10    63 1   
    19    10    64 1   
    20    11    12 2   
    21    11    13 1   
    22    13    14 1   
    23    14    15 1   
    24    14    18 1   
    25    14    69 1   
    26    15    16 1   
    27    15    70 1   
    28    15    71 1   
    29    16    17 1   
    30    16    45 1   
    31    17    18 1   
    32    17    19 1   
    33    17    74 1   
    34    18    72 1   
    35    18    73 1   
    36    19    20 1   
    37    19    61 2   
    38    20    21 1   
    39    20    75 1   
    40    21    22 1   
    41    21    23 1   
    42    21    26 1   
    43    22    23 1   
    44    22    24 1   
    45    22    76 1   
    46    23    77 1   
    47    23    78 1   
    48    24    25 2   
    49    24    79 1   
    50    25    80 1   
    51    25    81 1   
    52    26    27 1   
    53    26    60 2   
    54    27    28 1   
    55    27    82 1   
    56    28    29 1   
    57    28    58 2   
    58    28    59 2   
    59    29    30 ar  
    60    29    34 ar  
    61    30    31 ar  
    62    30    36 1   
    63    31    32 ar  
    64    31    84 1   
    65    32    33 ar  
    66    32    86 1   
    67    33    34 ar  
    68    33    35 1   
    69    34    83 1   
    70    36    37 1   
    71    36    85 1   
    72    37    38 1   
    73    37    87 1   
    74    37    88 1   
    75    38    39 1   
    76    38    89 1   
    77    38    90 1   
    78    39    40 1   
    79    39    91 1   
    80    39    92 1   
    81    40    41 1   
    82    40    93 1   
    83    40    94 1   
    84    41    42 1   
    85    41    95 1   
    86    41    96 1   
    87    42    43 1   
    88    42    97 1   
    89    42    98 1   
    90    43    44 1   
    91    43    99 1   
    92    43   100 1   
    93    44    45 1   
    94    44    47 1   
    95    44   101 1   
    96    45    46 2   
    97    47    48 1   
    98    47   102 1   
    99    48    49 2   
   100    48    50 1   
   101    50    51 1   
   102    50    55 1   
   103    50   103 1   
   104    51    52 1   
   105    51   104 1   
   106    51   105 1   
   107    52    53 1   
   108    52   106 1   
   109    52   107 1   
   110    53    54 1   
   111    53   108 1   
   112    53   109 1   
   113    54    55 1   
   114    54    57 1   
   115    55    56 2   
   116    57   110 1   
   117    57   111 1   
   118    57   112 1   
@<TRIPOS>SUBSTRUCTURE
     1 F9K         1 TEMP              0 ****  ****    0 ROOT
