@<TRIPOS>MOLECULE
F9K
  112   118     1     0     0
SMALL
abcg2


@<TRIPOS>ATOM
      1 F1           2.3450    58.1560   101.9780 f          1 F9K      -0.179000
      2 C2           1.6030    59.1910   102.4500 ca         1 F9K       0.186000
      3 C3           2.2460    60.3300   102.8860 ca         1 F9K      -0.137300
      4 C4           1.4830    61.3880   103.3720 ca         1 F9K      -0.080300
      5 C5           0.0990    61.3120   103.4210 ca         1 F9K      -0.104000
      6 C6          -0.5230    60.1490   102.9720 ca         1 F9K      -0.083000
      7 C7           0.2240    59.0780   102.4830 ca         1 F9K      -0.146000
      8 C8           2.3780    62.5190   103.7970 c5         1 F9K       0.168300
      9 N9           3.7130    61.9890   103.5020 n          1 F9K      -0.415800
     10 C10          3.7090    60.6350   102.9300 c5         1 F9K       0.173300
     11 C11          4.8230    62.7100   103.7230 c          1 F9K       0.643100
     12 O12          4.8460    63.8430   104.1860 o          1 F9K      -0.550000
     13 O13          5.9260    62.0090   103.3770 os         1 F9K      -0.450100
     14 C14          7.2030    62.6740   103.4470 c5         1 F9K       0.177300
     15 C15          8.2330    61.5770   103.2480 c5         1 F9K       0.109000
     16 N16          8.2130    61.3860   101.7960 n          1 F9K      -0.389800
     17 C17          7.7500    62.5820   101.0980 c5         1 F9K       0.031700
     18 C18          7.4200    63.5720   102.2340 c5         1 F9K      -0.111400
     19 C19          8.8410    63.1310   100.1830 c          1 F9K       0.602100
     20 N20          8.4060    63.9430    99.1920 ns         1 F9K      -0.467900
     21 C21          9.2890    64.6350    98.3080 cx         1 F9K      -0.058600
     22 C22         10.2320    63.7660    97.4540 cx         1 F9K      -0.042500
     23 C23          9.0630    64.4650    96.8330 cx         1 F9K      -0.086400
     24 C24         11.6230    64.1830    97.2020 c2         1 F9K      -0.205200
     25 C25         12.6680    63.3740    97.3560 c2         1 F9K      -0.293000
     26 C26          9.8160    65.9630    98.7750 c          1 F9K       0.664100
     27 N27          9.9920    66.0620   100.1400 ns         1 F9K      -0.589300
     28 S28         10.5250    67.4850   100.8380 sy         1 F9K       1.198300
     29 C29         10.2300    67.1240   102.5520 ca         1 F9K      -0.262500
     30 C30         10.5370    65.8900   103.1470 ca         1 F9K       0.309000
     31 C31         10.1760    65.7130   104.4860 ca         1 F9K      -0.153000
     32 C32          9.5620    66.7200   105.2150 ca         1 F9K      -0.077000
     33 C33          9.3160    67.9320   104.5940 ca         1 F9K       0.143000
     34 C34          9.6310    68.1550   103.2720 ca         1 F9K      -0.045000
     35 F35          8.7240    68.9280   105.2940 f          1 F9K      -0.173000
     36 N36         11.1030    64.8340   102.4070 nu         1 F9K      -0.947200
     37 C37         12.5640    64.8600   102.1440 c3         1 F9K       0.173800
     38 C38         13.0730    63.4620   101.8130 c3         1 F9K      -0.096400
     39 C39         13.1360    62.5330   103.0260 c3         1 F9K      -0.074400
     40 C40         13.6690    61.1290   102.7230 c3         1 F9K      -0.070400
     41 C41         12.8030    60.2830   101.7850 c3         1 F9K      -0.071400
     42 C42         11.3540    60.1480   102.2500 c3         1 F9K      -0.079400
     43 C43         10.6010    59.0350   101.5230 c3         1 F9K      -0.085400
     44 C44          9.0930    59.0660   101.7980 c3         1 F9K       0.055700
     45 C45          8.4830    60.2790   101.0850 c          1 F9K       0.605100
     46 O46          8.3100    60.2500    99.8650 o          1 F9K      -0.618100
     47 N47          8.4640    57.8540   101.3020 ns         1 F9K      -0.484900
     48 C48          7.1470    57.6420   101.4720 c          1 F9K       0.621100
     49 O49          6.4380    58.4150   102.1150 o          1 F9K      -0.607100
     50 C50          6.5560    56.4260   100.7720 c6         1 F9K      -0.212700
     51 C51          5.6540    56.8770    99.6200 c6         1 F9K      -0.069400
     52 C52          4.8010    55.7050    99.1670 c6         1 F9K      -0.090400
     53 C53          3.9140    55.2500   100.3080 c6         1 F9K       0.108000
     54 N54          4.6510    55.0550   101.5610 n          1 F9K      -0.403800
     55 C55          5.8670    55.5620   101.8340 c          1 F9K       0.581000
     56 O56          6.4650    55.3370   102.8930 o          1 F9K      -0.575000
     57 C57          3.9400    54.2810   102.5680 c3         1 F9K       0.083300
     58 O58         11.9360    67.6690   100.5940 o          1 F9K      -0.532000
     59 O59          9.6350    68.5460   100.4410 o          1 F9K      -0.532000
     60 O60         10.0700    66.8780    98.0140 o          1 F9K      -0.552100
     61 O61         10.0250    62.9040   100.3830 o          1 F9K      -0.600100
     62 H7          -0.2510    58.1710   102.1340 ha         1 F9K       0.133000
     63 H101         4.2680    59.9340   103.5540 h1         1 F9K       0.083200
     64 H102         4.1680    60.6240   101.9380 h1         1 F9K       0.083200
     65 H5          -0.4900    62.1380   103.7990 ha         1 F9K       0.125000
     66 H81C         2.1880    63.4360   103.2340 h1         1 F9K       0.069700
     67 H82C         2.2740    62.7520   104.8600 h1         1 F9K       0.069700
     68 H6          -1.6020    60.0690   103.0000 ha         1 F9K       0.121000
     69 H14          7.3000    63.1920   104.3970 h1         1 F9K       0.086700
     70 H151         9.2130    61.9170   103.5910 h1         1 F9K       0.069200
     71 H152         7.9600    60.6700   103.7780 h1         1 F9K       0.069200
     72 H181         6.5580    64.1930   102.0050 hc         1 F9K       0.077700
     73 H182         8.2690    64.2280   102.4370 hc         1 F9K       0.077700
     74 H17          6.8610    62.3470   100.5100 h1         1 F9K       0.086700
     75 H20          7.4150    64.1040    99.0880 hn         1 F9K       0.327500
     76 H22         10.1030    62.7110    97.6590 hc         1 F9K       0.101700
     77 H231         8.2090    63.8670    96.5500 hc         1 F9K       0.092700
     78 H232         9.2610    65.3320    96.2200 hc         1 F9K       0.092700
     79 H24         11.7770    65.2070    96.8790 ha         1 F9K       0.187000
     80 H251        13.6760    63.7150    97.1590 ha         1 F9K       0.165500
     81 H252        12.5470    62.3480    97.6820 ha         1 F9K       0.165500
     82 H27         10.1920    65.2330   100.7270 hn         1 F9K       0.383500
     83 H34          9.3860    69.0960   102.8020 ha         1 F9K       0.165000
     84 H31         10.3830    64.7590   104.9540 ha         1 F9K       0.116000
     85 H36         10.8480    63.9490   102.8270 hn         1 F9K       0.448000
     86 H32          9.2810    66.5730   106.2490 ha         1 F9K       0.139000
     87 H371        12.7540    65.5310   101.3100 h1         1 F9K       0.058700
     88 H372        13.0950    65.2560   103.0170 h1         1 F9K       0.058700
     89 H381        12.4460    63.0400   101.0260 hc         1 F9K       0.068200
     90 H382        14.0790    63.5660   101.3960 hc         1 F9K       0.068200
     91 H391        13.7860    62.9950   103.7770 hc         1 F9K       0.030700
     92 H392        12.1510    62.4440   103.4940 hc         1 F9K       0.030700
     93 H401        14.6760    61.2140   102.2990 hc         1 F9K       0.039700
     94 H402        13.7790    60.5930   103.6720 hc         1 F9K       0.039700
     95 H411        12.8120    60.7080   100.7770 hc         1 F9K       0.043200
     96 H412        13.2550    59.2890   101.7020 hc         1 F9K       0.043200
     97 H421        11.3270    59.9470   103.3270 hc         1 F9K       0.046700
     98 H422        10.8460    61.1000   102.0950 hc         1 F9K       0.046700
     99 H431        10.7570    59.1110   100.4430 hc         1 F9K       0.057200
    100 H432        10.9880    58.0630   101.8370 hc         1 F9K       0.057200
    101 H44          8.9260    59.1220   102.8720 h1         1 F9K       0.075700
    102 H47          8.9890    57.2500   100.6900 hn         1 F9K       0.324500
    103 H50          7.3610    55.8030   100.3700 hc         1 F9K       0.073700
    104 H511         5.0090    57.6920    99.9590 hc         1 F9K       0.065700
    105 H512         6.2720    57.2620    98.8070 hc         1 F9K       0.065700
    106 H521         4.1660    55.9860    98.3250 hc         1 F9K       0.054200
    107 H522         5.4410    54.8810    98.8380 hc         1 F9K       0.054200
    108 H531         3.1180    55.9800   100.4860 h1         1 F9K       0.046700
    109 H532         3.4350    54.3000   100.0650 h1         1 F9K       0.046700
    110 H571         4.4880    54.3090   103.5030 h1         1 F9K       0.046700
    111 H572         2.9440    54.7050   102.7130 h1         1 F9K       0.046700
    112 H573         3.8310    53.2440   102.2390 h1         1 F9K       0.046700
@<TRIPOS>BOND
     1     1     2 1   
     2     2     3 ar  
     3     2     7 ar  
     4     3     4 ar  
     5     3    10 1   
     6     4     5 ar  
     7     4     8 1   
     8     5     6 ar  
     9     5    65 1   
    10     6     7 ar  
    11     6    68 1   
    12     7    62 1   
    13     8     9 1   
    14     8    66 1   
    15     8    67 1   
    16     9    10 1   
    17     9    11 1   
    18    10    63 1   
    19    10    64 1   
    20    11    12 2   
    21    11    13 1   
    22    13    14 1   
    23    14    15 1   
    24    14    18 1   
    25    14    69 1   
    26    15    16 1   
    27    15    70 1   
    28    15    71 1   
    29    16    17 1   
    30    16    45 1   
    31    17    18 1   
    32    17    19 1   
    33    17    74 1   
    34    18    72 1   
    35    18    73 1   
    36    19    20 1   
    37    19    61 2   
    38    20    21 1   
    39    20    75 1   
    40    21    22 1   
    41    21    23 1   
    42    21    26 1   
    43    22    23 1   
    44    22    24 1   
    45    22    76 1   
    46    23    77 1   
    47    23    78 1   
    48    24    25 2   
    49    24    79 1   
    50    25    80 1   
    51    25    81 1   
    52    26    27 1   
    53    26    60 2   
    54    27    28 1   
    55    27    82 1   
    56    28    29 1   
    57    28    58 2   
    58    28    59 2   
    59    29    30 ar  
    60    29    34 ar  
    61    30    31 ar  
    62    30    36 1   
    63    31    32 ar  
    64    31    84 1   
    65    32    33 ar  
    66    32    86 1   
    67    33    34 ar  
    68    33    35 1   
    69    34    83 1   
    70    36    37 1   
    71    36    85 1   
    72    37    38 1   
    73    37    87 1   
    74    37    88 1   
    75    38    39 1   
    76    38    89 1   
    77    38    90 1   
    78    39    40 1   
    79    39    91 1   
    80    39    92 1   
    81    40    41 1   
    82    40    93 1   
    83    40    94 1   
    84    41    42 1   
    85    41    95 1   
    86    41    96 1   
    87    42    43 1   
    88    42    97 1   
    89    42    98 1   
    90    43    44 1   
    91    43    99 1   
    92    43   100 1   
    93    44    45 1   
    94    44    47 1   
    95    44   101 1   
    96    45    46 2   
    97    47    48 1   
    98    47   102 1   
    99    48    49 2   
   100    48    50 1   
   101    50    51 1   
   102    50    55 1   
   103    50   103 1   
   104    51    52 1   
   105    51   104 1   
   106    51   105 1   
   107    52    53 1   
   108    52   106 1   
   109    52   107 1   
   110    53    54 1   
   111    53   108 1   
   112    53   109 1   
   113    54    55 1   
   114    54    57 1   
   115    55    56 2   
   116    57   110 1   
   117    57   111 1   
   118    57   112 1   
@<TRIPOS>SUBSTRUCTURE
     1 F9K         1 TEMP              0 ****  ****    0 ROOT
