@<TRIPOS>MOLECULE
F9M
   62    67     1     0     0
SMALL
abcg2


@<TRIPOS>ATOM
      1 N12        116.2270   169.5280   142.5880 nu         1 F9M      -0.891800
      2 C15        119.4450   174.2760   140.0320 c5         1 F9M       0.079200
      3 C17        119.0370   175.2880   138.9400 c5         1 F9M      -0.092900
      4 C20        121.2380   176.2040   141.0850 c6         1 F9M       0.221300
      5 C22        122.7450   175.5090   139.2620 ca         1 F9M       0.410900
      6 C24        116.2290   173.2080   142.3660 ca         1 F9M       0.009000
      7 C26        124.1240   174.8280   137.5750 ca         1 F9M       0.211900
      8 C28        124.8250   176.0300   137.6360 ca         1 F9M      -0.393300
      9 C16        119.7160   176.3400   141.0350 c5         1 F9M       0.079200
     10 C18        119.2190   176.6730   139.6140 c5         1 F9M      -0.092900
     11 C19        120.9480   173.9950   140.0040 c6         1 F9M       0.221300
     12 C23        117.6050   173.3960   142.2370 ca         1 F9M      -0.241600
     13 C25        118.4070   172.2590   142.2870 ca         1 F9M       0.410900
     14 C27        124.3960   176.9400   138.5980 ca         1 F9M       0.211900
     15 C29        115.7100   171.9340   142.4830 ca         1 F9M      -0.217000
     16 C30        116.6030   170.8530   142.4860 ca         1 F9M       0.626900
     17 C31        125.9970   176.2920   136.7590 c3         1 F9M       0.369300
     18 C32        115.0110   168.9140   142.4590 cc         1 F9M       0.708300
     19 C33        113.6080   167.1850   142.4320 cd         1 F9M       0.420500
     20 C34        112.7350   168.1560   142.0250 cc         1 F9M      -0.269000
     21 C35        113.3260   165.7780   142.6460 cd         1 F9M      -0.274500
     22 C36        112.2060   165.0330   142.3590 cc         1 F9M       0.314300
     23 C37        113.4350   163.4110   143.2750 cd         1 F9M       0.431700
     24 C38        110.9540   165.5270   141.7100 c3         1 F9M      -0.124400
     25 C39        113.8190   162.0470   143.7380 c3         1 F9M      -0.129400
     26 F03        125.8270   175.7950   135.5110 f          1 F9M      -0.114000
     27 F04        126.2600   177.6100   136.6290 f          1 F9M      -0.114000
     28 F05        127.1410   175.7240   137.2300 f          1 F9M      -0.114000
     29 N07        119.1440   175.0100   141.2700 n          1 F9M      -0.408800
     30 N08        121.6880   175.2560   140.0650 nh         1 F9M      -0.763300
     31 N09        123.1030   174.5580   138.3670 nb         1 F9M      -0.254000
     32 N10        123.3780   176.6970   139.4040 nb         1 F9M      -0.254000
     33 N11        117.9300   171.0250   142.4140 nb         1 F9M      -0.734000
     34 N13        114.8940   167.6320   142.6760 nd         1 F9M      -0.721000
     35 N14        112.2900   163.7080   142.7240 nc         1 F9M      -0.654000
     36 O06        117.7340   175.6540   142.9270 o          1 F9M      -0.595100
     37 S01        113.5340   169.6840   141.9310 ss         1 F9M      -0.056400
     38 S02        114.5200   164.7580   143.3940 ss         1 F9M       0.014600
     39 H1         118.8960   173.3420   139.9790 h1         1 F9M       0.094200
     40 H2         119.6510   175.1730   138.0480 hc         1 F9M       0.059200
     41 H3         117.9970   175.1240   138.6600 hc         1 F9M       0.059200
     42 H4         121.7060   177.1640   140.9000 h1         1 F9M       0.075950
     43 H5         121.5400   175.8500   142.0750 h1         1 F9M       0.075950
     44 H6         115.5670   174.0630   142.3780 ha         1 F9M       0.139000
     45 H7         124.4000   174.0610   136.8580 h4         1 F9M       0.037600
     46 H8         119.3800   177.0350   141.7980 h1         1 F9M       0.094200
     47 H9         119.9320   177.3040   139.0840 hc         1 F9M       0.059200
     48 H10        118.2710   177.2070   139.6700 hc         1 F9M       0.059200
     49 H11        121.2210   173.3660   140.8570 h1         1 F9M       0.075950
     50 H12        121.2130   173.4760   139.0900 h1         1 F9M       0.075950
     51 H13        119.4870   172.3480   142.2460 h4         1 F9M       0.028100
     52 H14        124.8920   177.8970   138.7180 h4         1 F9M       0.037600
     53 H15        114.6480   171.7980   142.6060 ha         1 F9M       0.138000
     54 H16        111.6840   168.0890   141.8110 h4         1 F9M       0.167000
     55 H20        110.3130   164.6830   141.4630 hc         1 F9M       0.052033
     56 H21        110.3990   166.1970   142.3710 hc         1 F9M       0.052033
     57 H22        111.1720   166.0810   140.7940 hc         1 F9M       0.052033
     58 H23        112.9240   161.4350   143.8370 hc         1 F9M       0.058700
     59 H24        114.4870   161.5670   143.0180 hc         1 F9M       0.058700
     60 H25        114.3360   162.0820   144.6980 hc         1 F9M       0.058700
     61 H30        117.0020   168.8870   142.7070 hn         1 F9M       0.529000
     62 C21        118.1590   174.7790   142.1640 c          1 F9M       0.630700
@<TRIPOS>BOND
     1     1    16 1   
     2     1    18 1   
     3     1    61 1   
     4     2     3 1   
     5     2    11 1   
     6     2    29 1   
     7     2    39 1   
     8     3    10 1   
     9     3    40 1   
    10     3    41 1   
    11     4     9 1   
    12     4    30 1   
    13     4    42 1   
    14     4    43 1   
    15     5    30 1   
    16     5    31 ar  
    17     5    32 ar  
    18     6    12 ar  
    19     6    15 ar  
    20     6    44 1   
    21     7     8 ar  
    22     7    31 ar  
    23     7    45 1   
    24     8    14 ar  
    25     8    17 1   
    26     9    10 1   
    27     9    29 1   
    28     9    46 1   
    29    10    47 1   
    30    10    48 1   
    31    11    30 1   
    32    11    49 1   
    33    11    50 1   
    34    12    13 ar  
    35    12    62 1   
    36    13    33 ar  
    37    13    51 1   
    38    14    32 ar  
    39    14    52 1   
    40    15    16 ar  
    41    15    53 1   
    42    16    33 ar  
    43    17    26 1   
    44    17    27 1   
    45    17    28 1   
    46    18    34 2   
    47    18    37 1   
    48    19    20 2   
    49    19    21 1   
    50    19    34 1   
    51    20    37 1   
    52    20    54 1   
    53    21    22 2   
    54    21    38 1   
    55    22    24 1   
    56    22    35 1   
    57    23    25 1   
    58    23    35 2   
    59    23    38 1   
    60    24    55 1   
    61    24    56 1   
    62    24    57 1   
    63    25    58 1   
    64    25    59 1   
    65    25    60 1   
    66    29    62 1   
    67    36    62 2   
@<TRIPOS>SUBSTRUCTURE
     1 F9M         1 TEMP              0 ****  ****    0 ROOT
