@<TRIPOS>MOLECULE
F9M
   62    67     1     0     0
SMALL
No Charge or Current Charge


@<TRIPOS>ATOM
      1 N12        116.0190   169.8560   142.6880 nu         1 F9M      -0.891800
      2 C15        118.9560   174.6900   139.8050 c5         1 F9M       0.079200
      3 C17        118.4180   175.9170   139.0050 c5         1 F9M      -0.092900
      4 C20        121.1420   176.3130   140.7990 c6         1 F9M       0.221300
      5 C22        122.7250   175.3300   139.0560 ca         1 F9M       0.410900
      6 C24        115.8960   173.5380   142.6000 ca         1 F9M       0.009000
      7 C26        124.1730   174.2900   137.6040 ca         1 F9M       0.211900
      8 C28        125.1820   175.2040   137.9510 ca         1 F9M      -0.393300
      9 C16        119.6220   176.5470   141.0670 c5         1 F9M       0.079200
     10 C18        118.8770   177.1600   139.8400 c5         1 F9M      -0.092900
     11 C19        120.4180   174.3020   139.4130 c6         1 F9M       0.221300
     12 C23        117.2250   173.7210   142.1750 ca         1 F9M      -0.241600
     13 C25        118.0320   172.5840   141.9970 ca         1 F9M       0.410900
     14 C27        124.8550   176.1810   138.9060 ca         1 F9M       0.211900
     15 C29        115.4330   172.2270   142.7810 ca         1 F9M      -0.217000
     16 C30        116.3120   171.1670   142.5300 ca         1 F9M       0.626900
     17 C31        126.5720   175.1230   137.3390 c3         1 F9M       0.369300
     18 C32        114.9020   169.1180   142.5800 cc         1 F9M       0.708300
     19 C33        113.8470   167.1940   142.5230 cd         1 F9M       0.420500
     20 C34        112.7810   168.0310   142.2600 cc         1 F9M      -0.269000
     21 C35        113.7470   165.7550   142.6170 cd         1 F9M      -0.274500
     22 C36        112.6090   164.9750   142.4690 cc         1 F9M       0.314300
     23 C37        114.0960   163.3770   142.8660 cd         1 F9M       0.431700
     24 C38        111.1880   165.3750   142.1780 c3         1 F9M      -0.124400
     25 C39        114.5910   161.9740   143.0660 c3         1 F9M      -0.129400
     26 F03        126.5490   174.6210   136.0840 f          1 F9M      -0.114000
     27 F04        127.1670   176.3350   137.2620 f          1 F9M      -0.114000
     28 F05        127.3840   174.3280   138.0700 f          1 F9M      -0.114000
     29 N07        118.9230   175.2520   141.1720 n          1 F9M      -0.408800
     30 N08        121.4280   175.3990   139.6330 nh         1 F9M      -0.763300
     31 N09        122.9460   174.3520   138.1520 nb         1 F9M      -0.254000
     32 N10        123.6300   176.2460   139.4570 nb         1 F9M      -0.254000
     33 N11        117.5820   171.3220   142.1720 nb         1 F9M      -0.734000
     34 N13        115.0660   167.8280   142.6970 nd         1 F9M      -0.721000
     35 N14        112.8200   163.6240   142.6130 nc         1 F9M      -0.654000
     36 O06        117.3130   176.0480   142.6060 o          1 F9M      -0.595100
     37 S01        113.2970   169.6920   142.2150 ss         1 F9M      -0.056400
     38 S02        115.1630   164.7650   142.9540 ss         1 F9M       0.014600
     39 H1         118.3060   173.8160   139.6680 h1         1 F9M       0.094200
     40 H2         118.7990   175.9400   137.9770 hc         1 F9M       0.059200
     41 H3         117.3250   175.8860   138.9350 hc         1 F9M       0.059200
     42 H4         121.6010   177.3000   140.6370 h1         1 F9M       0.075950
     43 H5         121.5950   175.8970   141.7110 h1         1 F9M       0.075950
     44 H6         115.2380   174.3860   142.7860 ha         1 F9M       0.139000
     45 H7         124.3420   173.4930   136.8810 h4         1 F9M       0.037600
     46 H8         119.5150   177.1700   141.9660 h1         1 F9M       0.094200
     47 H9         119.5180   177.8380   139.2630 hc         1 F9M       0.059200
     48 H10        118.0100   177.7460   140.1640 hc         1 F9M       0.059200
     49 H11        120.7110   173.4140   139.9930 h1         1 F9M       0.075950
     50 H12        120.4030   173.9990   138.3550 h1         1 F9M       0.075950
     51 H13        119.0820   172.6730   141.7210 h4         1 F9M       0.028100
     52 H14        125.5800   176.9210   139.2430 h4         1 F9M       0.037600
     53 H15        114.4220   172.0500   143.1260 ha         1 F9M       0.138000
     54 H16        111.7400   167.8250   142.0840 h4         1 F9M       0.167000
     55 H20        110.5270   164.5020   142.1260 hc         1 F9M       0.052033
     56 H21        110.7940   166.0260   142.9660 hc         1 F9M       0.052033
     57 H22        111.1140   165.8870   141.2110 hc         1 F9M       0.052033
     58 H23        114.0850   161.4990   143.9140 hc         1 F9M       0.058700
     59 H24        114.4070   161.3650   142.1740 hc         1 F9M       0.058700
     60 H25        115.6690   161.9600   143.2660 hc         1 F9M       0.058700
     61 H30        116.8390   169.2710   142.6480 hn         1 F9M       0.529000
     62 C21        117.7810   175.1000   141.9880 c          1 F9M       0.630700
@<TRIPOS>BOND
     1     1    16 1   
     2     1    18 1   
     3     1    61 1   
     4     2     3 1   
     5     2    11 1   
     6     2    29 1   
     7     2    39 1   
     8     3    10 1   
     9     3    40 1   
    10     3    41 1   
    11     4     9 1   
    12     4    30 1   
    13     4    42 1   
    14     4    43 1   
    15     5    30 1   
    16     5    31 ar  
    17     5    32 ar  
    18     6    12 ar  
    19     6    15 ar  
    20     6    44 1   
    21     7     8 ar  
    22     7    31 ar  
    23     7    45 1   
    24     8    14 ar  
    25     8    17 1   
    26     9    10 1   
    27     9    29 1   
    28     9    46 1   
    29    10    47 1   
    30    10    48 1   
    31    11    30 1   
    32    11    49 1   
    33    11    50 1   
    34    12    13 ar  
    35    12    62 1   
    36    13    33 ar  
    37    13    51 1   
    38    14    32 ar  
    39    14    52 1   
    40    15    16 ar  
    41    15    53 1   
    42    16    33 ar  
    43    17    26 1   
    44    17    27 1   
    45    17    28 1   
    46    18    34 2   
    47    18    37 1   
    48    19    20 2   
    49    19    21 1   
    50    19    34 1   
    51    20    37 1   
    52    20    54 1   
    53    21    22 2   
    54    21    38 1   
    55    22    24 1   
    56    22    35 1   
    57    23    25 1   
    58    23    35 2   
    59    23    38 1   
    60    24    55 1   
    61    24    56 1   
    62    24    57 1   
    63    25    58 1   
    64    25    59 1   
    65    25    60 1   
    66    29    62 1   
    67    36    62 2   
@<TRIPOS>SUBSTRUCTURE
     1 F9M         1 TEMP              0 ****  ****    0 ROOT
