@<TRIPOS>MOLECULE
F9O
   40    42     1     0     0
SMALL
abcg2


@<TRIPOS>ATOM
      1 C4          40.7320    14.6500   104.8640 c6         1 F9O       0.174500
      2 C5          40.7840    16.1200   104.4370 c3         1 F9O      -0.067400
      3 C6          39.9320    17.0870   105.2510 c3         1 F9O      -0.088400
      4 C3          41.2030    12.4130   104.0060 c6         1 F9O       0.152800
      5 C2          41.9880    12.0260   105.2530 c6         1 F9O      -0.111400
      6 C1          41.4830    12.8360   106.4390 c6         1 F9O      -0.115400
      7 N           41.2050    13.8420   103.7420 n7         1 F9O      -0.855400
      8 C           41.5130    14.3340   106.1450 c6         1 F9O       0.139300
      9 O           40.9630    15.0660   107.2210 oh         1 F9O      -0.660000
     10 C10         41.7520    19.2860   103.2470 ca         1 F9O      -0.077200
     11 C11         41.5350    18.8650   101.9400 ca         1 F9O      -0.101000
     12 C12         42.4880    19.2100   101.0040 ca         1 F9O      -0.086000
     13 C13         43.6260    19.9500   101.3570 ca         1 F9O       0.093000
     14 C14         43.8400    20.3580   102.6610 ca         1 F9O       0.173000
     15 C7          39.7680    18.4450   104.5850 c3         1 F9O       0.077600
     16 C8          41.7390    19.7690   105.3730 cc         1 F9O       0.419700
     17 C9          42.8870    20.0210   103.6220 ca         1 F9O       0.071400
     18 N1          41.0290    19.1460   104.4020 na         1 F9O      -0.172600
     19 N2          42.8530    20.3070   104.9580 nd         1 F9O      -0.557100
     20 CL1         44.7670    20.3540   100.1260 cl         1 F9O      -0.180000
     21 H1          39.6810    14.3740   105.0350 h1         1 F9O       0.069700
     22 H2          41.8280    16.4520   104.4260 hc         1 F9O       0.049200
     23 H3          40.4410    16.1540   103.3980 hc         1 F9O       0.049200
     24 H4          40.3360    17.2240   106.2540 hc         1 F9O       0.061200
     25 H5          38.9260    16.6740   105.3770 hc         1 F9O       0.061200
     26 H6          40.1630    12.0900   104.1200 h1         1 F9O       0.055200
     27 H7          41.5950    11.9000   103.1260 h1         1 F9O       0.055200
     28 H8          41.8930    10.9560   105.4510 hc         1 F9O       0.047200
     29 H9          43.0530    12.2230   105.0900 hc         1 F9O       0.047200
     30 H10         40.4520    12.5450   106.6670 hc         1 F9O       0.048200
     31 H11         42.0790    12.6240   107.3330 hc         1 F9O       0.048200
     32 H12         42.1490    14.1330   103.5070 hn         1 F9O       0.407000
     33 H14         42.5600    14.6340   105.9680 h1         1 F9O       0.029700
     34 H15         41.4830    14.8760   108.0080 ho         1 F9O       0.445000
     35 H16         40.6640    18.2930   101.6500 ha         1 F9O       0.126000
     36 H17         42.3610    18.9070    99.9730 ha         1 F9O       0.131000
     37 H18         39.1140    19.0810   105.1820 h1         1 F9O       0.061200
     38 H19         39.3030    18.3430   103.6050 h1         1 F9O       0.061200
     39 H20         41.3790    19.8050   106.3920 h5         1 F9O       0.064800
     40 CL          45.2240    21.2610   103.1230 cl         1 F9O      -0.147000
@<TRIPOS>BOND
     1     1     2 1   
     2     1     7 1   
     3     1     8 1   
     4     1    21 1   
     5     2     3 1   
     6     2    22 1   
     7     2    23 1   
     8     3    15 1   
     9     3    24 1   
    10     3    25 1   
    11     4     5 1   
    12     4     7 1   
    13     4    26 1   
    14     4    27 1   
    15     5     6 1   
    16     5    28 1   
    17     5    29 1   
    18     6     8 1   
    19     6    30 1   
    20     6    31 1   
    21     7    32 1   
    22     8     9 1   
    23     8    33 1   
    24     9    34 1   
    25    10    11 ar  
    26    10    17 ar  
    27    10    18 1   
    28    11    12 ar  
    29    11    35 1   
    30    12    13 ar  
    31    12    36 1   
    32    13    14 ar  
    33    13    20 1   
    34    14    17 ar  
    35    14    40 1   
    36    15    18 1   
    37    15    37 1   
    38    15    38 1   
    39    16    18 1   
    40    16    19 2   
    41    16    39 1   
    42    17    19 1   
@<TRIPOS>SUBSTRUCTURE
     1 F9O         1 TEMP              0 ****  ****    0 ROOT
