@<TRIPOS>MOLECULE
F9O
   40    42     1     0     0
SMALL
No Charge or Current Charge


@<TRIPOS>ATOM
      1 C4          40.6690    14.6490   104.8100 c6         1 F9O       0.174500
      2 C5          40.6720    16.1450   104.3540 c3         1 F9O      -0.067400
      3 C6          39.8500    17.1380   105.2170 c3         1 F9O      -0.088400
      4 C3          41.2320    12.3930   103.9330 c6         1 F9O       0.152800
      5 C2          42.0950    12.0820   105.1760 c6         1 F9O      -0.111400
      6 C1          41.5670    12.8450   106.4140 c6         1 F9O      -0.115400
      7 N           41.2050    13.8500   103.6690 n7         1 F9O      -0.855400
      8 C           41.4750    14.3690   106.1390 c6         1 F9O       0.139300
      9 O           40.8750    14.9890   107.2840 oh         1 F9O      -0.660000
     10 C10         41.7620    19.3160   103.3410 ca         1 F9O      -0.077200
     11 C11         41.5230    18.7940   102.0610 ca         1 F9O      -0.101000
     12 C12         42.4970    19.0230   101.0680 ca         1 F9O      -0.086000
     13 C13         43.6680    19.7570   101.3700 ca         1 F9O       0.093000
     14 C14         43.8760    20.2700   102.6740 ca         1 F9O       0.173000
     15 C7          39.7290    18.5510   104.6040 c3         1 F9O       0.077600
     16 C8          41.7230    19.9390   105.4780 cc         1 F9O       0.419700
     17 C9          42.8900    20.0290   103.6520 ca         1 F9O       0.071400
     18 N1          41.0200    19.2530   104.4860 na         1 F9O      -0.172600
     19 N2          42.8830    20.4310   104.9930 nd         1 F9O      -0.557100
     20 Cl1         44.8590    20.0180   100.0940 cl         1 F9O      -0.180000
     21 H1          39.6220    14.3520   104.9750 h1         1 F9O       0.069700
     22 H2          41.7070    16.5030   104.2890 hc         1 F9O       0.049200
     23 H3          40.2710    16.1980   103.3340 hc         1 F9O       0.049200
     24 H4          40.3000    17.2350   106.2110 hc         1 F9O       0.061200
     25 H5          38.8410    16.7330   105.3620 hc         1 F9O       0.061200
     26 H6          40.2070    12.0250   104.0920 h1         1 F9O       0.055200
     27 H7          41.6410    11.8650   103.0580 h1         1 F9O       0.055200
     28 H8          42.0870    11.0010   105.3700 hc         1 F9O       0.047200
     29 H9          43.1410    12.3590   104.9820 hc         1 F9O       0.047200
     30 H10         40.5760    12.4550   106.6840 hc         1 F9O       0.048200
     31 H11         42.2250    12.6530   107.2740 hc         1 F9O       0.048200
     32 H12         42.1660    14.1600   103.4830 hn         1 F9O       0.407000
     33 H14         42.4970    14.7540   106.0050 h1         1 F9O       0.029700
     34 H15         41.4410    14.7660   108.0550 ho         1 F9O       0.445000
     35 H16         40.6230    18.2290   101.8310 ha         1 F9O       0.126000
     36 H17         42.3480    18.6340   100.0640 ha         1 F9O       0.131000
     37 H18         39.0720    19.1560   105.2430 h1         1 F9O       0.061200
     38 H19         39.2500    18.4880   103.6190 h1         1 F9O       0.061200
     39 H20         41.3530    20.0370   106.4910 h5         1 F9O       0.064800
     40 Cl          45.3320    21.1890   103.0760 cl         1 F9O      -0.147000
@<TRIPOS>BOND
     1     1     2 1   
     2     1     7 1   
     3     1     8 1   
     4     1    21 1   
     5     2     3 1   
     6     2    22 1   
     7     2    23 1   
     8     3    15 1   
     9     3    24 1   
    10     3    25 1   
    11     4     5 1   
    12     4     7 1   
    13     4    26 1   
    14     4    27 1   
    15     5     6 1   
    16     5    28 1   
    17     5    29 1   
    18     6     8 1   
    19     6    30 1   
    20     6    31 1   
    21     7    32 1   
    22     8     9 1   
    23     8    33 1   
    24     9    34 1   
    25    10    11 ar  
    26    10    17 ar  
    27    10    18 1   
    28    11    12 ar  
    29    11    35 1   
    30    12    13 ar  
    31    12    36 1   
    32    13    14 ar  
    33    13    20 1   
    34    14    17 ar  
    35    14    40 1   
    36    15    18 1   
    37    15    37 1   
    38    15    38 1   
    39    16    18 1   
    40    16    19 2   
    41    16    39 1   
    42    17    19 1   
@<TRIPOS>SUBSTRUCTURE
     1 F9O         1 TEMP              0 ****  ****    0 ROOT
