@<TRIPOS>MOLECULE
F9P
   23    23     1     0     0
SMALL
bcc


@<TRIPOS>ATOM
      1 C10         -0.8300     1.2930    -0.6310 c6         1 F9P      -0.066900
      2 C02          1.2990     0.0400    -0.2780 c          1 F9P       0.667100
      3 C05         -0.1270     0.2120     0.1980 c6         1 F9P      -0.140700
      4 C06         -0.8880    -1.1130     0.1120 c6         1 F9P      -0.066900
      5 C07         -2.3370    -0.9390     0.5540 c6         1 F9P      -0.073900
      6 C08         -3.0420     0.1460    -0.2530 c6         1 F9P      -0.076400
      7 C09         -2.2790     1.4640    -0.1860 c6         1 F9P      -0.073900
      8 N03          2.2210     0.3960     0.6390 ns         1 F9P      -0.454400
      9 O01          1.5870    -0.4000    -1.3780 o          1 F9P      -0.568100
     10 O04          3.5350     0.4750     0.2860 oh         1 F9P      -0.389100
     11 H1          -0.2940     2.2420    -0.5440 hc         1 F9P       0.052950
     12 H2          -0.8000     1.0080    -1.6870 hc         1 F9P       0.052950
     13 H3          -0.1250     0.5350     1.2460 hc         1 F9P       0.048700
     14 H4          -0.8610    -1.4740    -0.9210 hc         1 F9P       0.052950
     15 H5          -0.3950    -1.8710     0.7250 hc         1 F9P       0.052950
     16 H6          -2.8690    -1.8890     0.4610 hc         1 F9P       0.039950
     17 H7          -2.3630    -0.6730     1.6170 hc         1 F9P       0.039950
     18 H8          -3.1260    -0.1740    -1.2980 hc         1 F9P       0.042700
     19 H9          -4.0640     0.2830     0.1100 hc         1 F9P       0.042700
     20 H10         -2.2990     1.8420     0.8410 hc         1 F9P       0.039950
     21 H11         -2.7670     2.2200    -0.8060 hc         1 F9P       0.039950
     22 H12          1.9740     0.9250     1.4630 hn         1 F9P       0.330500
     23 H13          3.9480    -0.3350     0.6120 ho         1 F9P       0.406000
@<TRIPOS>BOND
     1     1     3 1   
     2     1     7 1   
     3     1    11 1   
     4     1    12 1   
     5     2     3 1   
     6     2     8 1   
     7     2     9 2   
     8     3     4 1   
     9     3    13 1   
    10     4     5 1   
    11     4    14 1   
    12     4    15 1   
    13     5     6 1   
    14     5    16 1   
    15     5    17 1   
    16     6     7 1   
    17     6    18 1   
    18     6    19 1   
    19     7    20 1   
    20     7    21 1   
    21     8    10 1   
    22     8    22 1   
    23    10    23 1   
@<TRIPOS>SUBSTRUCTURE
     1 F9P         1 TEMP              0 ****  ****    0 ROOT
