@<TRIPOS>MOLECULE
F9P
   23    23     1     0     0
SMALL
No Charge or Current Charge


@<TRIPOS>ATOM
      1 C10         -0.8630     1.3230    -0.6920 c6         1 F9P      -0.066900
      2 C02          1.3480     0.0220    -0.3520 c          1 F9P       0.600100
      3 C05         -0.1300     0.1850     0.0690 c6         1 F9P      -0.140700
      4 C06         -0.9160    -1.1550     0.0820 c6         1 F9P      -0.066900
      5 C07         -2.3670    -0.9470     0.5850 c6         1 F9P      -0.073900
      6 C08         -3.0940     0.1570    -0.2250 c6         1 F9P      -0.076400
      7 C09         -2.3140     1.4960    -0.1780 c6         1 F9P      -0.073900
      8 N03          2.2940     0.3060     0.6280 ns         1 F9P      -0.387400
      9 O01          1.6610    -0.3450    -1.4790 o          1 F9P      -0.568100
     10 O04          3.6970     0.4460     0.2950 oh         1 F9P      -0.428100
     11 H1          -0.3140     2.2690    -0.5790 hc         1 F9P       0.052950
     12 H2          -0.8790     1.0980    -1.7680 hc         1 F9P       0.052950
     13 H3          -0.0940     0.5120     1.1180 hc         1 F9P       0.048700
     14 H4          -0.9370    -1.5820    -0.9310 hc         1 F9P       0.052950
     15 H5          -0.4040    -1.8890     0.7200 hc         1 F9P       0.052950
     16 H6          -2.9250    -1.8910     0.5120 hc         1 F9P       0.039950
     17 H7          -2.3550    -0.6750     1.6490 hc         1 F9P       0.039950
     18 H8          -3.2120    -0.1670    -1.2690 hc         1 F9P       0.042700
     19 H9          -4.1070     0.3030     0.1720 hc         1 F9P       0.042700
     20 H10         -2.2990     1.8780     0.8520 hc         1 F9P       0.039950
     21 H11         -2.8350     2.2510    -0.7820 hc         1 F9P       0.039950
     22 H12          1.9920     0.7440     1.4980 hn         1 F9P       0.330500
     23 H13          4.1510    -0.1270     0.9580 ho         1 F9P       0.445000
@<TRIPOS>BOND
     1     1     3 1   
     2     1     7 1   
     3     1    11 1   
     4     1    12 1   
     5     2     3 1   
     6     2     8 1   
     7     2     9 2   
     8     3     4 1   
     9     3    13 1   
    10     4     5 1   
    11     4    14 1   
    12     4    15 1   
    13     5     6 1   
    14     5    16 1   
    15     5    17 1   
    16     6     7 1   
    17     6    18 1   
    18     6    19 1   
    19     7    20 1   
    20     7    21 1   
    21     8    10 1   
    22     8    22 1   
    23    10    23 1   
@<TRIPOS>SUBSTRUCTURE
     1 F9P         1 TEMP              0 ****  ****    0 ROOT
