@<TRIPOS>MOLECULE
F9Q
   33    35     1     0     0
SMALL
abcg2


@<TRIPOS>ATOM
      1 C01          1.8480    -4.4640     1.2540 c3         1 F9Q      -0.144400
      2 C02          1.4780    -3.2220     0.5070 ca         1 F9Q       0.368300
      3 C03          0.2110    -2.6630     0.6090 ca         1 F9Q      -0.138000
      4 C04         -0.0930    -1.5100    -0.1080 cp         1 F9Q      -0.075500
      5 C05          0.8910    -0.9610    -0.9220 ca         1 F9Q      -0.145000
      6 C06          2.1160    -1.6020    -0.9450 ca         1 F9Q       0.448000
      7 CL7          3.3720    -0.9440    -1.9510 cl         1 F9Q      -0.172000
      8 N08          2.4200    -2.6800    -0.2690 nb         1 F9Q      -0.666000
      9 C09         -1.4460    -0.9280    -0.0450 cp         1 F9Q       0.211500
     10 C10         -1.7390     0.4500     0.0460 cq         1 F9Q       0.223500
     11 N11         -2.9860     0.8520    -0.0500 nb         1 F9Q      -0.222000
     12 C12         -3.9240    -0.0920    -0.1850 ca         1 F9Q       0.338900
     13 N13         -5.1900     0.2930    -0.3370 nv         1 F9Q      -1.062900
     14 N14         -3.6800    -1.4140    -0.1510 nb         1 F9Q      -0.161000
     15 N15         -2.4430    -1.7980    -0.1010 nb         1 F9Q      -0.236000
     16 C16         -0.7240     1.4920     0.2780 cq         1 F9Q      -0.190500
     17 C17         -0.8170     2.7010    -0.4090 ca         1 F9Q      -0.043500
     18 C18          0.1140     3.7050    -0.2010 ca         1 F9Q      -0.160500
     19 C19          1.1200     3.4910     0.7220 ca         1 F9Q       0.194000
     20 F20          2.0210     4.4590     0.9320 f          1 F9Q      -0.172000
     21 C21          1.2260     2.3140     1.4390 ca         1 F9Q      -0.160500
     22 C22          0.3000     1.3120     1.2060 ca         1 F9Q      -0.043500
     23 H1           1.9840    -5.2980     0.5630 hc         1 F9Q       0.055367
     24 H2           2.7880    -4.3290     1.7890 hc         1 F9Q       0.055367
     25 H3           1.0780    -4.7430     1.9700 hc         1 F9Q       0.055367
     26 H4          -0.5280    -3.1200     1.2520 ha         1 F9Q       0.140000
     27 H5           0.7150    -0.0810    -1.5240 ha         1 F9Q       0.143000
     28 H6          -5.4280     1.2690    -0.3590 hn         1 F9Q       0.512500
     29 H7          -5.9200    -0.3880    -0.4490 hn         1 F9Q       0.512500
     30 H8          -1.6110     2.8540    -1.1270 ha         1 F9Q       0.129000
     31 H9           0.0550     4.6380    -0.7460 ha         1 F9Q       0.138000
     32 H10          2.0150     2.1830     2.1680 ha         1 F9Q       0.138000
     33 H11          0.3710     0.3940     1.7740 ha         1 F9Q       0.129000
@<TRIPOS>BOND
     1     1     2 1   
     2     1    23 1   
     3     1    24 1   
     4     1    25 1   
     5     2     3 ar  
     6     2     8 ar  
     7     3     4 ar  
     8     3    26 1   
     9     4     5 ar  
    10     4     9 1   
    11     5     6 ar  
    12     5    27 1   
    13     6     7 1   
    14     6     8 ar  
    15     9    10 1   
    16     9    15 ar  
    17    10    11 2   
    18    10    16 1   
    19    11    12 ar  
    20    12    13 1   
    21    12    14 ar  
    22    13    28 1   
    23    13    29 1   
    24    14    15 ar  
    25    16    17 1   
    26    16    22 2   
    27    17    18 ar  
    28    17    30 1   
    29    18    19 ar  
    30    18    31 1   
    31    19    20 1   
    32    19    21 ar  
    33    21    22 ar  
    34    21    32 1   
    35    22    33 1   
@<TRIPOS>SUBSTRUCTURE
     1 F9Q         1 TEMP              0 ****  ****    0 ROOT
