@<TRIPOS>MOLECULE
F9Q
   33    35     1     0     0
SMALL
No Charge or Current Charge


@<TRIPOS>ATOM
      1 C01          1.8560    -4.7390     1.1300 c3         1 F9Q      -0.144400
      2 C02          1.5190    -3.4130     0.4750 ca         1 F9Q       0.368300
      3 C03          0.2350    -2.8500     0.5990 ca         1 F9Q      -0.138000
      4 C04         -0.0670    -1.6080    -0.0160 cp         1 F9Q      -0.075500
      5 C05          0.9890    -1.0160    -0.7530 ca         1 F9Q      -0.145000
      6 C06          2.2390    -1.6490    -0.8250 ca         1 F9Q       0.448000
      7 Cl7          3.5520    -0.9170    -1.7340 cl         1 F9Q      -0.172000
      8 N08          2.5120    -2.8260    -0.2260 nb         1 F9Q      -0.666000
      9 C09         -1.4240    -0.9660     0.0850 cp         1 F9Q       0.211500
     10 C10         -1.7090     0.4860    -0.1280 cq         1 F9Q       0.223500
     11 N11         -2.9890     0.8640    -0.3320 nb         1 F9Q      -0.222000
     12 C12         -3.9330    -0.0660    -0.1310 ca         1 F9Q       0.338900
     13 N13         -5.2220     0.3370    -0.2810 nv         1 F9Q      -1.062900
     14 N14         -3.7290    -1.3540     0.1950 nb         1 F9Q      -0.161000
     15 N15         -2.4660    -1.8060     0.2920 nb         1 F9Q      -0.236000
     16 C16         -0.7490     1.6140     0.1700 cq         1 F9Q      -0.190500
     17 C17         -0.8700     2.8570    -0.4950 ca         1 F9Q      -0.043500
     18 C18          0.0280     3.9020    -0.2170 ca         1 F9Q      -0.160500
     19 C19          1.0460     3.7210     0.7270 ca         1 F9Q       0.194000
     20 F20          1.9060     4.7290     0.9920 f          1 F9Q      -0.172000
     21 C21          1.1710     2.5010     1.4010 ca         1 F9Q      -0.160500
     22 C22          0.2770     1.4510     1.1290 ca         1 F9Q      -0.043500
     23 H1           1.6120    -5.5730     0.4620 hc         1 F9Q       0.055367
     24 H2           2.9220    -4.8070     1.3790 hc         1 F9Q       0.055367
     25 H3           1.2920    -4.8760     2.0590 hc         1 F9Q       0.055367
     26 H4          -0.5160    -3.3780     1.1810 ha         1 F9Q       0.140000
     27 H5           0.8470    -0.0760    -1.2790 ha         1 F9Q       0.143000
     28 H6          -5.4090     1.2340    -0.7270 hn         1 F9Q       0.512500
     29 H7          -5.9570    -0.3660    -0.3470 hn         1 F9Q       0.512500
     30 H8          -1.6480     3.0200    -1.2390 ha         1 F9Q       0.129000
     31 H9          -0.0650     4.8530    -0.7350 ha         1 F9Q       0.138000
     32 H10          1.9590     2.3700     2.1390 ha         1 F9Q       0.138000
     33 H11          0.3880     0.5180     1.6800 ha         1 F9Q       0.129000
@<TRIPOS>BOND
     1     1     2 1   
     2     1    23 1   
     3     1    24 1   
     4     1    25 1   
     5     2     3 ar  
     6     2     8 ar  
     7     3     4 ar  
     8     3    26 1   
     9     4     5 ar  
    10     4     9 1   
    11     5     6 ar  
    12     5    27 1   
    13     6     7 1   
    14     6     8 ar  
    15     9    10 1   
    16     9    15 ar  
    17    10    11 2   
    18    10    16 1   
    19    11    12 ar  
    20    12    13 1   
    21    12    14 ar  
    22    13    28 1   
    23    13    29 1   
    24    14    15 ar  
    25    16    17 1   
    26    16    22 2   
    27    17    18 ar  
    28    17    30 1   
    29    18    19 ar  
    30    18    31 1   
    31    19    20 1   
    32    19    21 ar  
    33    21    22 ar  
    34    21    32 1   
    35    22    33 1   
@<TRIPOS>SUBSTRUCTURE
     1 F9Q         1 TEMP              0 ****  ****    0 ROOT
