@<TRIPOS>MOLECULE
F9R
  118   125     1     0     0
SMALL
No Charge or Current Charge


@<TRIPOS>ATOM
      1 O23          2.6630   -21.1140    58.8440 o          1 F9R      -0.491000
      2 C23          2.7900   -20.8680    57.6550 c          1 F9R       0.650300
      3 C22          1.7440   -20.9160    56.6360 ce         1 F9R      -0.325200
      4 O21          3.9600   -20.4920    57.0370 os         1 F9R      -0.428100
      5 C21          3.7310   -20.2860    55.6030 c5         1 F9R       0.173800
      6 C20          2.2490   -20.5880    55.4500 c2         1 F9R      -0.071400
      7 C17          1.4550   -20.5340    54.1320 c5         1 F9R      -0.012500
      8 C16          1.8220   -19.2770    53.2650 c5         1 F9R      -0.068400
      9 C13          1.6580   -21.8160    53.1680 c5         1 F9R      -0.022000
     10 C12          0.2860   -22.3090    52.5230 c6         1 F9R      -0.074400
     11 C11          0.4680   -23.2460    51.3090 c6         1 F9R      -0.073400
     12 C18          2.2560   -23.0580    53.9120 c3         1 F9R      -0.074100
     13 C14          2.6200   -21.2350    52.0480 c5         1 F9R       0.192000
     14 C15          1.9700   -19.8310    51.8190 c5         1 F9R      -0.110400
     15 O14          3.9530   -21.0640    52.5390 oh         1 F9R      -0.669000
     16 C8           2.7300   -22.1490    50.7630 c6         1 F9R      -0.071700
     17 C7           3.6010   -21.4750    49.6510 c6         1 F9R      -0.073400
     18 C9           1.3290   -22.5880    50.1880 c6         1 F9R      -0.041700
     19 C10          1.4570   -23.5010    48.8890 c6         1 F9R      -0.029000
     20 C1           0.0680   -23.7950    48.2130 c6         1 F9R      -0.066400
     21 C19          2.1020   -24.8940    49.2190 c3         1 F9R      -0.085100
     22 C5           2.3370   -22.7370    47.8000 c6         1 F9R      -0.049700
     23 C6           3.7230   -22.3470    48.3810 c6         1 F9R      -0.071400
     24 C4           1.6350   -21.4800    47.1340 c6         1 F9R      -0.066400
     25 C3           0.2610   -21.8560    46.5290 c6         1 F9R       0.182300
     26 C2          -0.6220   -22.5390    47.6130 c6         1 F9R      -0.096400
     27 C1X         -0.6750   -22.8970    44.5230 c6         1 F9R       0.406300
     28 C1Y         -3.5290   -25.0090    40.6390 c6         1 F9R       0.396300
     29 C1Z         -5.2950   -25.4890    35.7060 c6         1 F9R       0.404300
     30 C2X         -0.2130   -23.1140    43.0720 c6         1 F9R      -0.151400
     31 C2Y         -4.8470   -25.6700    40.2080 c6         1 F9R      -0.143400
     32 C2Z         -5.0900   -25.1650    34.2140 c6         1 F9R      -0.144400
     33 C3X         -1.4100   -23.4350    42.1470 c6         1 F9R       0.160300
     34 C3Y         -4.8710   -25.9280    38.6820 c6         1 F9R       0.151300
     35 C3Z         -6.1740   -25.8470    33.3460 c6         1 F9R       0.175300
     36 C4X         -2.3190   -24.5750    42.7300 c6         1 F9R       0.151300
     37 C4Y         -4.4730   -24.6490    37.8620 c6         1 F9R       0.156300
     38 C4Z         -6.2710   -27.3720    33.6670 c6         1 F9R       0.147300
     39 C5X         -2.5950   -24.3200    44.2450 c6         1 F9R       0.173300
     40 C5Y         -3.2080   -23.9830    38.4860 c6         1 F9R       0.180300
     41 C5Z         -6.3760   -27.5890    35.2130 c6         1 F9R       0.152300
     42 C6X         -3.2850   -25.5200    44.9400 c3         1 F9R      -0.087100
     43 C6Y         -2.9000   -22.5930    37.8780 c3         1 F9R      -0.087100
     44 C6Z         -6.2890   -29.0790    35.6300 c3         1 F9R      -0.093100
     45 O3           0.4700   -22.6910    45.3660 os         1 F9R      -0.454000
     46 O3X         -2.1740   -22.2510    41.8840 oh         1 F9R      -0.708000
     47 O3Y         -4.0280   -27.0380    38.3460 oh         1 F9R      -0.705000
     48 O3Z         -7.4440   -25.2190    33.5620 oh         1 F9R      -0.645000
     49 O4X         -3.5900   -24.6770    42.0320 os         1 F9R      -0.425000
     50 O4Y         -4.2040   -24.9530    36.4660 os         1 F9R      -0.430000
     51 O4Z         -7.3940   -27.9500    32.9660 oh         1 F9R      -0.696000
     52 O5X         -1.3660   -24.0790    44.9590 os         1 F9R      -0.491000
     53 O5Y         -3.3750   -23.7830    39.9050 os         1 F9R      -0.496000
     54 O5Z         -5.2860   -26.9180    35.8790 os         1 F9R      -0.495000
     55 H1           0.7190   -21.1920    56.8700 ha         1 F9R       0.219000
     56 H3           4.3730   -20.9720    55.0370 h1         1 F9R       0.086200
     57 H4           3.9920   -19.2530    55.3420 h1         1 F9R       0.086200
     58 H6           0.3930   -20.4720    54.3970 hc         1 F9R       0.058700
     59 H7           2.7520   -18.7970    53.5820 hc         1 F9R       0.047200
     60 H8           1.0470   -18.5040    53.3230 hc         1 F9R       0.047200
     61 H9          -0.3210   -21.4480    52.2150 hc         1 F9R       0.041700
     62 H10         -0.3180   -22.8180    53.2860 hc         1 F9R       0.041700
     63 H11         -0.5320   -23.4880    50.9310 hc         1 F9R       0.045200
     64 H12          0.9050   -24.1970    51.6340 hc         1 F9R       0.045200
     65 H13          1.5820   -23.4080    54.7030 hc         1 F9R       0.041033
     66 H14          2.4360   -23.9000    53.2360 hc         1 F9R       0.041033
     67 H15          3.2200   -22.8410    54.3820 hc         1 F9R       0.041033
     68 H16          2.5970   -19.1720    51.2100 hc         1 F9R       0.050700
     69 H17          1.0010   -19.8830    51.3130 hc         1 F9R       0.050700
     70 H18          4.4710   -20.6870    51.7990 ho         1 F9R       0.442000
     71 H19          3.2590   -23.0570    51.0810 hc         1 F9R       0.064700
     72 H20          4.6150   -21.2780    50.0230 hc         1 F9R       0.034700
     73 H21          3.1860   -20.4970    49.3790 hc         1 F9R       0.034700
     74 H22          0.8100   -21.6690    49.8940 hc         1 F9R       0.043700
     75 H23         -0.6170   -24.2950    48.9090 hc         1 F9R       0.050200
     76 H24          0.2110   -24.5220    47.4010 hc         1 F9R       0.050200
     77 H25          1.4410   -25.5110    49.8380 hc         1 F9R       0.034033
     78 H26          2.2940   -25.4670    48.3040 hc         1 F9R       0.034033
     79 H27          3.0580   -24.8140    49.7470 hc         1 F9R       0.034033
     80 H28          2.5320   -23.4450    46.9820 hc         1 F9R       0.066700
     81 H29          4.3080   -23.2470    48.6080 hc         1 F9R       0.042200
     82 H30          4.3050   -21.8060    47.6210 hc         1 F9R       0.042200
     83 H31          2.2780   -21.0590    46.3500 hc         1 F9R       0.046200
     84 H32          1.4870   -20.6790    47.8690 hc         1 F9R       0.046200
     85 H33         -0.2310   -20.9300    46.1990 h1         1 F9R       0.030700
     86 H34         -0.8540   -21.8170    48.4050 hc         1 F9R       0.045700
     87 H35         -1.5970   -22.8160    47.1920 hc         1 F9R       0.045700
     88 H36         -1.3430   -22.0240    44.5730 h2         1 F9R       0.029700
     89 H37         -2.6840   -25.6860    40.4450 h2         1 F9R       0.031700
     90 H38         -6.2470   -25.0640    36.0570 h2         1 F9R       0.028700
     91 H39          0.5060   -23.9430    43.0430 hc         1 F9R       0.064700
     92 H40          0.3190   -22.2240    42.7100 hc         1 F9R       0.064700
     93 H41         -5.6850   -25.0160    40.4820 hc         1 F9R       0.067700
     94 H42         -4.9910   -26.6110    40.7550 hc         1 F9R       0.067700
     95 H43         -4.0960   -25.5100    33.9010 hc         1 F9R       0.068200
     96 H44         -5.1100   -24.0780    34.0610 hc         1 F9R       0.068200
     97 H45         -0.9900   -23.8000    41.1970 h1         1 F9R       0.056700
     98 H46         -5.9090   -26.1810    38.4180 h1         1 F9R       0.057700
     99 H47         -5.8890   -25.7370    32.2890 h1         1 F9R       0.047700
    100 H48         -1.7870   -25.5320    42.6330 h1         1 F9R       0.060700
    101 H49         -5.3020   -23.9280    37.9110 h1         1 F9R       0.054700
    102 H50         -5.3380   -27.8430    33.3220 h1         1 F9R       0.042700
    103 H51         -3.2430   -23.4370    44.3520 h1         1 F9R       0.059700
    104 H52         -2.3360   -24.6340    38.3220 h1         1 F9R       0.060700
    105 H53         -7.3260   -27.1770    35.5850 h1         1 F9R       0.060700
    106 H54         -3.4470   -25.3160    46.0050 hc         1 F9R       0.044367
    107 H55         -4.2640   -25.7260    44.4910 hc         1 F9R       0.044367
    108 H56         -2.6790   -26.4300    44.8580 hc         1 F9R       0.044367
    109 H57         -2.0160   -22.1460    38.3490 hc         1 F9R       0.045033
    110 H58         -2.6980   -22.6680    36.8030 hc         1 F9R       0.045033
    111 H59         -3.7410   -21.9030    38.0140 hc         1 F9R       0.045033
    112 H60         -6.3090   -29.1810    36.7210 hc         1 F9R       0.045033
    113 H61         -7.1340   -29.6530    35.2330 hc         1 F9R       0.045033
    114 H62         -5.3640   -29.5420    35.2650 hc         1 F9R       0.045033
    115 H63         -2.8470   -22.5540    41.2200 ho         1 F9R       0.499000
    116 H64         -4.1950   -27.1700    37.3770 ho         1 F9R       0.499000
    117 H65         -8.0960   -25.8890    33.2530 ho         1 F9R       0.440000
    118 H66         -7.2380   -28.9220    32.9180 ho         1 F9R       0.502000
@<TRIPOS>BOND
     1     1     2 2   
     2     2     3 1   
     3     2     4 1   
     4     3     6 2   
     5     3    55 1   
     6     4     5 1   
     7     5     6 1   
     8     5    56 1   
     9     5    57 1   
    10     6     7 1   
    11     7     8 1   
    12     7     9 1   
    13     7    58 1   
    14     8    14 1   
    15     8    59 1   
    16     8    60 1   
    17     9    10 1   
    18     9    12 1   
    19     9    13 1   
    20    10    11 1   
    21    10    61 1   
    22    10    62 1   
    23    11    18 1   
    24    11    63 1   
    25    11    64 1   
    26    12    65 1   
    27    12    66 1   
    28    12    67 1   
    29    13    14 1   
    30    13    15 1   
    31    13    16 1   
    32    14    68 1   
    33    14    69 1   
    34    15    70 1   
    35    16    17 1   
    36    16    18 1   
    37    16    71 1   
    38    17    23 1   
    39    17    72 1   
    40    17    73 1   
    41    18    19 1   
    42    18    74 1   
    43    19    20 1   
    44    19    21 1   
    45    19    22 1   
    46    20    26 1   
    47    20    75 1   
    48    20    76 1   
    49    21    77 1   
    50    21    78 1   
    51    21    79 1   
    52    22    23 1   
    53    22    24 1   
    54    22    80 1   
    55    23    81 1   
    56    23    82 1   
    57    24    25 1   
    58    24    83 1   
    59    24    84 1   
    60    25    26 1   
    61    25    45 1   
    62    25    85 1   
    63    26    86 1   
    64    26    87 1   
    65    27    30 1   
    66    27    45 1   
    67    27    52 1   
    68    27    88 1   
    69    28    31 1   
    70    28    49 1   
    71    28    53 1   
    72    28    89 1   
    73    29    32 1   
    74    29    50 1   
    75    29    54 1   
    76    29    90 1   
    77    30    33 1   
    78    30    91 1   
    79    30    92 1   
    80    31    34 1   
    81    31    93 1   
    82    31    94 1   
    83    32    35 1   
    84    32    95 1   
    85    32    96 1   
    86    33    36 1   
    87    33    46 1   
    88    33    97 1   
    89    34    37 1   
    90    34    47 1   
    91    34    98 1   
    92    35    38 1   
    93    35    48 1   
    94    35    99 1   
    95    36    39 1   
    96    36    49 1   
    97    36   100 1   
    98    37    40 1   
    99    37    50 1   
   100    37   101 1   
   101    38    41 1   
   102    38    51 1   
   103    38   102 1   
   104    39    42 1   
   105    39    52 1   
   106    39   103 1   
   107    40    43 1   
   108    40    53 1   
   109    40   104 1   
   110    41    44 1   
   111    41    54 1   
   112    41   105 1   
   113    42   106 1   
   114    42   107 1   
   115    42   108 1   
   116    43   109 1   
   117    43   110 1   
   118    43   111 1   
   119    44   112 1   
   120    44   113 1   
   121    44   114 1   
   122    46   115 1   
   123    47   116 1   
   124    48   117 1   
   125    51   118 1   
@<TRIPOS>SUBSTRUCTURE
     1 F9R         1 TEMP              0 ****  ****    0 ROOT
