@<TRIPOS>MOLECULE
F9R
  118   125     1     0     0
SMALL
bcc


@<TRIPOS>ATOM
      1 O23          3.9810   -22.5990    58.2950 o          1 F9R      -0.566500
      2 C23          3.7630   -22.2110    57.1760 c          1 F9R       0.725800
      3 C22          2.5660   -22.3430    56.3480 ce         1 F9R      -0.275200
      4 O21          4.6840   -21.5280    56.4730 os         1 F9R      -0.404900
      5 C21          4.1750   -21.2070    55.1840 c5         1 F9R       0.150600
      6 C20          2.7790   -21.7520    55.1690 c2         1 F9R      -0.071400
      7 C17          1.7880   -21.6250    54.0610 c5         1 F9R      -0.012500
      8 C16          1.6270   -20.1700    53.5460 c5         1 F9R      -0.068400
      9 C13          2.0540   -22.4890    52.7830 c5         1 F9R      -0.022000
     10 C12          0.6840   -22.9850    52.2920 c6         1 F9R      -0.074400
     11 C11          0.7080   -23.5380    50.8750 c6         1 F9R      -0.073400
     12 C18          2.9580   -23.6940    53.0320 c3         1 F9R      -0.074100
     13 C14          2.6150   -21.4800    51.7590 c5         1 F9R       0.168800
     14 C15          1.7790   -20.2240    52.0230 c5         1 F9R      -0.110400
     15 O14          3.9560   -21.2250    52.1560 oh         1 F9R      -0.606800
     16 C8           2.5910   -21.9930    50.3050 c6         1 F9R      -0.071700
     17 C7           3.1390   -20.9470    49.3330 c6         1 F9R      -0.073400
     18 C9           1.2000   -22.4960    49.8720 c6         1 F9R      -0.041700
     19 C10          1.1730   -22.9960    48.4000 c6         1 F9R      -0.029000
     20 C1          -0.2580   -23.3310    47.9370 c6         1 F9R      -0.066400
     21 C19          1.9990   -24.2780    48.2350 c3         1 F9R      -0.085100
     22 C5           1.7360   -21.9030    47.4610 c6         1 F9R      -0.049700
     23 C6           3.1250   -21.4470    47.8960 c6         1 F9R      -0.071400
     24 C4           0.7940   -20.7000    47.3170 c6         1 F9R      -0.066400
     25 C3          -0.5960   -21.0840    46.8450 c6         1 F9R       0.159100
     26 C2          -1.1800   -22.1290    47.7860 c6         1 F9R      -0.096400
     27 C1X         -1.6060   -21.7360    44.7640 c6         1 F9R       0.359900
     28 C1Y         -3.7900   -24.5200    40.9190 c6         1 F9R       0.349900
     29 C1Z         -4.3990   -26.4710    36.1070 c6         1 F9R       0.357900
     30 C2X         -1.3240   -21.3680    43.3150 c6         1 F9R      -0.151400
     31 C2Y         -5.1180   -25.0810    40.4570 c6         1 F9R      -0.143400
     32 C2Z         -3.6340   -27.2720    35.0690 c6         1 F9R      -0.144400
     33 C3X         -2.5000   -21.7250    42.4130 c6         1 F9R       0.137100
     34 C3Y         -4.8960   -26.0950    39.3350 c6         1 F9R       0.128100
     35 C3Z         -4.4800   -27.4820    33.8160 c6         1 F9R       0.152100
     36 C4X         -2.8570   -23.1890    42.6380 c6         1 F9R       0.128100
     37 C4Y         -4.0430   -25.4610    38.2340 c6         1 F9R       0.133100
     38 C4Z         -5.8300   -28.0670    34.2130 c6         1 F9R       0.124100
     39 C5X         -3.1090   -23.4690    44.1240 c6         1 F9R       0.150100
     40 C5Y         -2.7680   -24.8270    38.8100 c6         1 F9R       0.157100
     41 C5Z         -6.4980   -27.2060    35.2960 c6         1 F9R       0.129100
     42 C6X         -3.3790   -24.9340    44.4050 c3         1 F9R      -0.087100
     43 C6Y         -1.9830   -24.0530    37.7710 c3         1 F9R      -0.087100
     44 C6Z         -7.7970   -27.8020    35.7990 c3         1 F9R      -0.093100
     45 O3          -0.4570   -21.5390    45.5010 os         1 F9R      -0.407600
     46 O3X         -3.6430   -20.9500    42.7040 oh         1 F9R      -0.585800
     47 O3Y         -4.2130   -27.2420    39.7930 oh         1 F9R      -0.582800
     48 O3Z         -4.7160   -26.2720    33.1290 oh         1 F9R      -0.582800
     49 O4X         -3.9980   -23.5510    41.8820 os         1 F9R      -0.378600
     50 O4Y         -3.6490   -26.4100    37.2650 os         1 F9R      -0.383600
     51 O4Z         -6.6270   -28.1840    33.0590 oh         1 F9R      -0.573800
     52 O5X         -1.9530   -23.1020    44.8570 os         1 F9R      -0.444600
     53 O5Y         -3.1250   -23.9150    39.8330 os         1 F9R      -0.449600
     54 O5Z         -5.6220   -27.1020    36.4060 os         1 F9R      -0.448600
     55 H1           1.6640   -22.8330    56.6820 ha         1 F9R       0.169000
     56 H3           4.8120   -21.6590    54.4240 h1         1 F9R       0.086200
     57 H4           4.2080   -20.1240    55.0460 h1         1 F9R       0.086200
     58 H6           0.8410   -21.9660    54.4880 hc         1 F9R       0.058700
     59 H7           2.3800   -19.5110    53.9790 hc         1 F9R       0.047200
     60 H8           0.6620   -19.7590    53.8410 hc         1 F9R       0.047200
     61 H9          -0.0510   -22.1750    52.3460 hc         1 F9R       0.041700
     62 H10          0.3270   -23.7520    52.9860 hc         1 F9R       0.041700
     63 H11         -0.2980   -23.8770    50.6200 hc         1 F9R       0.045200
     64 H12          1.3450   -24.4250    50.8390 hc         1 F9R       0.045200
     65 H13          2.5130   -24.3440    53.7870 hc         1 F9R       0.041033
     66 H14          3.0820   -24.2870    52.1260 hc         1 F9R       0.041033
     67 H15          3.9530   -23.4220    53.3740 hc         1 F9R       0.041033
     68 H16          2.2540   -19.3230    51.6290 hc         1 F9R       0.050700
     69 H17          0.8050   -20.2930    51.5360 hc         1 F9R       0.050700
     70 H18          4.2560   -20.4140    51.7340 ho         1 F9R       0.403000
     71 H19          3.2730   -22.8520    50.2790 hc         1 F9R       0.064700
     72 H20          4.1640   -20.6760    49.5990 hc         1 F9R       0.034700
     73 H21          2.5530   -20.0250    49.4020 hc         1 F9R       0.034700
     74 H22          0.5110   -21.6450    49.9380 hc         1 F9R       0.043700
     75 H23         -0.7150   -24.0590    48.6110 hc         1 F9R       0.050200
     76 H24         -0.1860   -23.8370    46.9700 hc         1 F9R       0.050200
     77 H25          1.5290   -25.1210    48.7440 hc         1 F9R       0.034033
     78 H26          2.0720   -24.5420    47.1780 hc         1 F9R       0.034033
     79 H27          3.0150   -24.1920    48.6210 hc         1 F9R       0.034033
     80 H28          1.8300   -22.3560    46.4670 hc         1 F9R       0.066700
     81 H29          3.8390   -22.2690    47.7890 hc         1 F9R       0.042200
     82 H30          3.4770   -20.6570    47.2260 hc         1 F9R       0.042200
     83 H31          1.2350   -19.9790    46.6210 hc         1 F9R       0.046200
     84 H32          0.6840   -20.1720    48.2670 hc         1 F9R       0.046200
     85 H33         -1.2410   -20.1930    46.8470 h1         1 F9R       0.030700
     86 H34         -1.3430   -21.6440    48.7530 hc         1 F9R       0.045700
     87 H35         -2.1670   -22.4520    47.4490 hc         1 F9R       0.045700
     88 H36         -2.4360   -21.1220    45.1550 h2         1 F9R       0.029700
     89 H37         -3.1580   -25.3330    41.3160 h2         1 F9R       0.031700
     90 H38         -4.6040   -25.4550    35.7260 h2         1 F9R       0.028700
     91 H39         -0.4320   -21.9070    42.9800 hc         1 F9R       0.064700
     92 H40         -1.1000   -20.3000    43.2380 hc         1 F9R       0.064700
     93 H41         -5.7520   -24.2650    40.0950 hc         1 F9R       0.067700
     94 H42         -5.6460   -25.5560    41.2890 hc         1 F9R       0.067700
     95 H43         -3.3650   -28.2450    35.4920 hc         1 F9R       0.068200
     96 H44         -2.7010   -26.7640    34.8110 hc         1 F9R       0.068200
     97 H45         -2.2000   -21.5950    41.3650 h1         1 F9R       0.056700
     98 H46         -5.8700   -26.3680    38.9120 h1         1 F9R       0.057700
     99 H47         -3.9700   -28.2030    33.1620 h1         1 F9R       0.047700
    100 H48         -1.9860   -23.7850    42.3320 h1         1 F9R       0.060700
    101 H49         -4.6390   -24.6590    37.7730 h1         1 F9R       0.054700
    102 H50         -5.6280   -29.0530    34.6570 h1         1 F9R       0.042700
    103 H51         -3.9740   -22.8780    44.4620 h1         1 F9R       0.059700
    104 H52         -2.1310   -25.6220    39.2260 h1         1 F9R       0.060700
    105 H53         -6.7020   -26.2070    34.8840 h1         1 F9R       0.060700
    106 H54         -3.5100   -25.1000    45.4740 hc         1 F9R       0.044367
    107 H55         -4.2910   -25.2610    43.9080 hc         1 F9R       0.044367
    108 H56         -2.5560   -25.5620    44.0580 hc         1 F9R       0.044367
    109 H57         -1.1110   -23.5810    38.2240 hc         1 F9R       0.045033
    110 H58         -1.6270   -24.7120    36.9800 hc         1 F9R       0.045033
    111 H59         -2.5970   -23.2730    37.3160 hc         1 F9R       0.045033
    112 H60         -8.2140   -27.1900    36.6000 hc         1 F9R       0.045033
    113 H61         -8.5420   -27.8420    35.0050 hc         1 F9R       0.045033
    114 H62         -7.6500   -28.8140    36.1820 hc         1 F9R       0.045033
    115 H63         -3.4140   -20.0220    42.5910 ho         1 F9R       0.400000
    116 H64         -4.7350   -27.6420    40.4950 ho         1 F9R       0.400000
    117 H65         -3.8660   -25.8980    32.8770 ho         1 F9R       0.401000
    118 H66         -7.3370   -28.8070    33.2410 ho         1 F9R       0.403000
@<TRIPOS>BOND
     1     1     2 2   
     2     2     3 1   
     3     2     4 1   
     4     3     6 2   
     5     3    55 1   
     6     4     5 1   
     7     5     6 1   
     8     5    56 1   
     9     5    57 1   
    10     6     7 1   
    11     7     8 1   
    12     7     9 1   
    13     7    58 1   
    14     8    14 1   
    15     8    59 1   
    16     8    60 1   
    17     9    10 1   
    18     9    12 1   
    19     9    13 1   
    20    10    11 1   
    21    10    61 1   
    22    10    62 1   
    23    11    18 1   
    24    11    63 1   
    25    11    64 1   
    26    12    65 1   
    27    12    66 1   
    28    12    67 1   
    29    13    14 1   
    30    13    15 1   
    31    13    16 1   
    32    14    68 1   
    33    14    69 1   
    34    15    70 1   
    35    16    17 1   
    36    16    18 1   
    37    16    71 1   
    38    17    23 1   
    39    17    72 1   
    40    17    73 1   
    41    18    19 1   
    42    18    74 1   
    43    19    20 1   
    44    19    21 1   
    45    19    22 1   
    46    20    26 1   
    47    20    75 1   
    48    20    76 1   
    49    21    77 1   
    50    21    78 1   
    51    21    79 1   
    52    22    23 1   
    53    22    24 1   
    54    22    80 1   
    55    23    81 1   
    56    23    82 1   
    57    24    25 1   
    58    24    83 1   
    59    24    84 1   
    60    25    26 1   
    61    25    45 1   
    62    25    85 1   
    63    26    86 1   
    64    26    87 1   
    65    27    30 1   
    66    27    45 1   
    67    27    52 1   
    68    27    88 1   
    69    28    31 1   
    70    28    49 1   
    71    28    53 1   
    72    28    89 1   
    73    29    32 1   
    74    29    50 1   
    75    29    54 1   
    76    29    90 1   
    77    30    33 1   
    78    30    91 1   
    79    30    92 1   
    80    31    34 1   
    81    31    93 1   
    82    31    94 1   
    83    32    35 1   
    84    32    95 1   
    85    32    96 1   
    86    33    36 1   
    87    33    46 1   
    88    33    97 1   
    89    34    37 1   
    90    34    47 1   
    91    34    98 1   
    92    35    38 1   
    93    35    48 1   
    94    35    99 1   
    95    36    39 1   
    96    36    49 1   
    97    36   100 1   
    98    37    40 1   
    99    37    50 1   
   100    37   101 1   
   101    38    41 1   
   102    38    51 1   
   103    38   102 1   
   104    39    42 1   
   105    39    52 1   
   106    39   103 1   
   107    40    43 1   
   108    40    53 1   
   109    40   104 1   
   110    41    44 1   
   111    41    54 1   
   112    41   105 1   
   113    42   106 1   
   114    42   107 1   
   115    42   108 1   
   116    43   109 1   
   117    43   110 1   
   118    43   111 1   
   119    44   112 1   
   120    44   113 1   
   121    44   114 1   
   122    46   115 1   
   123    47   116 1   
   124    48   117 1   
   125    51   118 1   
@<TRIPOS>SUBSTRUCTURE
     1 F9R         1 TEMP              0 ****  ****    0 ROOT
