@<TRIPOS>MOLECULE
F9S
   65    66     1     0     0
SMALL
abcg2


@<TRIPOS>ATOM
      1 CAG         11.6040     0.0960    -1.2410 ca         1 F9S      -0.107500
      2 CAE         12.8130    -0.5870    -1.2860 ca         1 F9S      -0.109500
      3 CAD         13.4480    -0.9600    -0.1090 ca         1 F9S      -0.112000
      4 CAF         12.8650    -0.6420     1.1120 ca         1 F9S      -0.109500
      5 CAH         11.6570     0.0410     1.1500 ca         1 F9S      -0.107500
      6 CAZ         11.0090     0.4200    -0.0240 ca         1 F9S      -0.078300
      7 CAV          9.6770     1.1150     0.0220 c3         1 F9S      -0.030100
      8 CAQ          8.5110     0.1250     0.0220 c3         1 F9S      -0.073400
      9 CAP          7.1580     0.8240     0.0650 c3         1 F9S      -0.081400
     10 CAU          6.0130    -0.1680     0.0610 c3         1 F9S       0.164600
     11 OAY          4.7890     0.5260     0.0930 os         1 F9S      -0.463000
     12 CAT          3.6690    -0.3270     0.0850 c3         1 F9S       0.164600
     13 CAO          2.4000     0.5020     0.0910 c3         1 F9S      -0.080400
     14 CAM          1.1510    -0.3720     0.0810 c3         1 F9S      -0.074400
     15 CAL         -0.1380     0.4390     0.0740 c3         1 F9S      -0.073400
     16 CAN         -1.3860    -0.4330     0.0590 c3         1 F9S      -0.079400
     17 CAS         -2.6690     0.3830     0.0400 c3         1 F9S       0.161800
     18 NAX         -3.8390    -0.4760     0.0150 n7         1 F9S      -0.849400
     19 CAW         -5.0680     0.2710     0.0070 c3         1 F9S       0.064800
     20 CBD         -6.2870    -0.6270     0.0200 c          1 F9S       0.583700
     21 OAC         -6.1710    -1.8310     0.1230 o          1 F9S      -0.510100
     22 CBB         -7.6200     0.0130    -0.0670 ca         1 F9S      -0.216600
     23 CAK         -8.7630    -0.7920    -0.0090 ca         1 F9S       0.004000
     24 CAJ         -7.7810     1.3900    -0.1990 ca         1 F9S      -0.030000
     25 CAI         -9.0450     1.9470    -0.2680 ca         1 F9S      -0.224000
     26 CBA        -10.1700     1.1310    -0.2040 ca         1 F9S       0.164100
     27 OAB        -11.4180     1.6180    -0.2560 oh         1 F9S      -0.533100
     28 CBC        -10.0360    -0.2600    -0.0750 ca         1 F9S      -0.132300
     29 CAR        -11.2750    -1.1090     0.0010 c3         1 F9S       0.220900
     30 OAA        -10.9170    -2.4640     0.0840 oh         1 F9S      -0.660000
     31 H1          11.1190     0.3840    -2.1670 ha         1 F9S       0.110000
     32 H2          13.2610    -0.8230    -2.2430 ha         1 F9S       0.111000
     33 H3          14.3910    -1.4910    -0.1420 ha         1 F9S       0.112000
     34 H4          13.3540    -0.9220     2.0360 ha         1 F9S       0.111000
     35 H5          11.2110     0.2850     2.1080 ha         1 F9S       0.110000
     36 H6           9.6160     1.7410     0.9170 hc         1 F9S       0.047700
     37 H7           9.5780     1.7860    -0.8350 hc         1 F9S       0.047700
     38 H8           8.5750    -0.5060    -0.8700 hc         1 F9S       0.042700
     39 H9           8.6100    -0.5470     0.8810 hc         1 F9S       0.042700
     40 H10          7.0960     1.4510     0.9600 hc         1 F9S       0.051700
     41 H11          7.0640     1.4920    -0.7970 hc         1 F9S       0.051700
     42 H12          6.0730    -0.8040    -0.8350 h1         1 F9S       0.019200
     43 H13          6.0990    -0.8410     0.9280 h1         1 F9S       0.019200
     44 H14          3.6850    -0.9760    -0.8030 h1         1 F9S       0.019200
     45 H15          3.6850    -0.9930     0.9610 h1         1 F9S       0.019200
     46 H16          2.3890     1.1470     0.9760 hc         1 F9S       0.051200
     47 H17          2.3920     1.1620    -0.7820 hc         1 F9S       0.051200
     48 H18          1.1710    -1.0280    -0.7960 hc         1 F9S       0.039700
     49 H19          1.1590    -1.0320     0.9550 hc         1 F9S       0.039700
     50 H20         -0.1590     1.0950     0.9520 hc         1 F9S       0.038200
     51 H21         -0.1450     1.1000    -0.8000 hc         1 F9S       0.038200
     52 H22         -1.3680    -1.0920    -0.8140 hc         1 F9S       0.048200
     53 H23         -1.3830    -1.0850     0.9410 hc         1 F9S       0.048200
     54 H24         -2.6740     1.0760     0.8980 h1         1 F9S       0.026200
     55 H25         -2.6840     1.0100    -0.8570 h1         1 F9S       0.026200
     56 H26         -3.8180    -1.0880     0.8230 hn         1 F9S       0.423000
     57 H28         -5.1650     0.9790     0.8490 h1         1 F9S       0.046700
     58 H29         -5.1010     0.8900    -0.8960 h1         1 F9S       0.046700
     59 H30         -8.6440    -1.8620     0.0940 ha         1 F9S       0.157000
     60 H31         -6.9290     2.0550    -0.2470 ha         1 F9S       0.113000
     61 H32         -9.1580     3.0200    -0.3670 ha         1 F9S       0.116000
     62 H33        -11.4100     2.5800    -0.3250 ho         1 F9S       0.470000
     63 H34        -11.8660    -0.7960     0.8720 h1         1 F9S       0.032700
     64 H35        -11.9030    -0.9140    -0.8790 h1         1 F9S       0.032700
     65 H36        -11.7190    -2.9740     0.2300 ho         1 F9S       0.448000
@<TRIPOS>BOND
     1     1     2 ar  
     2     1     6 ar  
     3     1    31 1   
     4     2     3 ar  
     5     2    32 1   
     6     3     4 ar  
     7     3    33 1   
     8     4     5 ar  
     9     4    34 1   
    10     5     6 ar  
    11     5    35 1   
    12     6     7 1   
    13     7     8 1   
    14     7    36 1   
    15     7    37 1   
    16     8     9 1   
    17     8    38 1   
    18     8    39 1   
    19     9    10 1   
    20     9    40 1   
    21     9    41 1   
    22    10    11 1   
    23    10    42 1   
    24    10    43 1   
    25    11    12 1   
    26    12    13 1   
    27    12    44 1   
    28    12    45 1   
    29    13    14 1   
    30    13    46 1   
    31    13    47 1   
    32    14    15 1   
    33    14    48 1   
    34    14    49 1   
    35    15    16 1   
    36    15    50 1   
    37    15    51 1   
    38    16    17 1   
    39    16    52 1   
    40    16    53 1   
    41    17    18 1   
    42    17    54 1   
    43    17    55 1   
    44    18    19 1   
    45    18    56 1   
    46    19    20 1   
    47    19    57 1   
    48    19    58 1   
    49    20    21 2   
    50    20    22 1   
    51    22    23 ar  
    52    22    24 ar  
    53    23    28 ar  
    54    23    59 1   
    55    24    25 ar  
    56    24    60 1   
    57    25    26 ar  
    58    25    61 1   
    59    26    27 1   
    60    26    28 ar  
    61    27    62 1   
    62    28    29 1   
    63    29    30 1   
    64    29    63 1   
    65    29    64 1   
    66    30    65 1   
@<TRIPOS>SUBSTRUCTURE
     1 F9S         1 TEMP              0 ****  ****    0 ROOT
