@<TRIPOS>MOLECULE
F9S
   65    66     1     0     0
SMALL
No Charge or Current Charge


@<TRIPOS>ATOM
      1 CAG         11.7840     0.1440    -1.3300 ca         1 F9S      -0.107500
      2 CAE         13.0640    -0.4370    -1.3300 ca         1 F9S      -0.109500
      3 CAD         13.7340    -0.6630    -0.1150 ca         1 F9S      -0.112000
      4 CAF         13.1210    -0.3090     1.0990 ca         1 F9S      -0.109500
      5 CAH         11.8410     0.2710     1.0980 ca         1 F9S      -0.107500
      6 CAZ         11.1660     0.5020    -0.1160 ca         1 F9S      -0.078300
      7 CAV          9.7760     1.1260    -0.1160 c3         1 F9S      -0.030100
      8 CAQ          8.6630     0.0610    -0.0360 c3         1 F9S      -0.073400
      9 CAP          7.2410     0.6660    -0.0340 c3         1 F9S      -0.081400
     10 CAU          6.1350    -0.4030     0.0460 c3         1 F9S       0.164600
     11 OAY          4.8700     0.2760     0.0400 os         1 F9S      -0.463000
     12 CAT          3.7300    -0.5950     0.1110 c3         1 F9S       0.164600
     13 CAO          2.4650     0.2860     0.0960 c3         1 F9S      -0.080400
     14 CAM          1.1590    -0.5350     0.1680 c3         1 F9S      -0.074400
     15 CAL         -0.1100     0.3450     0.1530 c3         1 F9S      -0.073400
     16 CAN         -1.4170    -0.4760     0.2250 c3         1 F9S      -0.079400
     17 CAS         -2.6810     0.4070     0.2090 c3         1 F9S       0.161800
     18 NAX         -3.8900    -0.4320     0.2750 n7         1 F9S      -0.849400
     19 CAW         -5.1920     0.3140     0.2340 c3         1 F9S       0.064800
     20 CBD         -6.4810    -0.5590     0.4020 c          1 F9S       0.583700
     21 OAC         -6.4070    -1.7330     0.7560 o          1 F9S      -0.510100
     22 CBB         -7.8340     0.0720     0.1350 ca         1 F9S      -0.216600
     23 CAK         -8.9940    -0.7370     0.1290 ca         1 F9S       0.004000
     24 CAJ         -7.9720     1.4570    -0.1050 ca         1 F9S      -0.030000
     25 CAI         -9.2390     2.0110    -0.3460 ca         1 F9S      -0.224000
     26 CBA        -10.3830     1.2010    -0.3530 ca         1 F9S       0.164100
     27 OAB        -11.5960     1.7790    -0.5860 oh         1 F9S      -0.533100
     28 CBC        -10.2680    -0.1850    -0.1160 ca         1 F9S      -0.132300
     29 CAR        -11.4860    -1.1080    -0.1030 c3         1 F9S       0.220900
     30 OAA        -11.3660    -2.1050    -1.1250 oh         1 F9S      -0.660000
     31 H1          11.2710     0.3130    -2.2750 ha         1 F9S       0.110000
     32 H2          13.5370    -0.7110    -2.2710 ha         1 F9S       0.111000
     33 H3          14.7250    -1.1120    -0.1150 ha         1 F9S       0.112000
     34 H4          13.6380    -0.4850     2.0400 ha         1 F9S       0.111000
     35 H5          11.3730     0.5400     2.0430 ha         1 F9S       0.110000
     36 H6           9.6750     1.8180     0.7290 hc         1 F9S       0.047700
     37 H7           9.6350     1.7290    -1.0220 hc         1 F9S       0.047700
     38 H8           8.7620    -0.6260    -0.8860 hc         1 F9S       0.042700
     39 H9           8.8020    -0.5360     0.8740 hc         1 F9S       0.042700
     40 H10          7.1400     1.3490     0.8170 hc         1 F9S       0.051700
     41 H11          7.0990     1.2590    -0.9460 hc         1 F9S       0.051700
     42 H12          6.2150    -1.0810    -0.8150 h1         1 F9S       0.019200
     43 H13          6.2560    -0.9910     0.9660 h1         1 F9S       0.019200
     44 H14          3.7110    -1.2800    -0.7470 h1         1 F9S       0.019200
     45 H15          3.7530    -1.1900     1.0340 h1         1 F9S       0.019200
     46 H16          2.5040     0.9810     0.9440 hc         1 F9S       0.051200
     47 H17          2.4620     0.8910    -0.8200 hc         1 F9S       0.051200
     48 H18          1.1250    -1.2320    -0.6790 hc         1 F9S       0.039700
     49 H19          1.1660    -1.1420     1.0820 hc         1 F9S       0.039700
     50 H20         -0.0760     1.0420     1.0000 hc         1 F9S       0.038200
     51 H21         -0.1170     0.9520    -0.7610 hc         1 F9S       0.038200
     52 H22         -1.4530    -1.1710    -0.6230 hc         1 F9S       0.048200
     53 H23         -1.4110    -1.0820     1.1400 hc         1 F9S       0.048200
     54 H24         -2.6480     1.0970     1.0630 h1         1 F9S       0.026200
     55 H25         -2.6850     1.0090    -0.7100 h1         1 F9S       0.026200
     56 H26         -3.8560    -0.9830     1.1440 hn         1 F9S       0.423000
     57 H28         -5.2210     1.0720     1.0290 h1         1 F9S       0.046700
     58 H29         -5.2830     0.8440    -0.7230 h1         1 F9S       0.046700
     59 H30         -8.9130    -1.8080     0.3120 ha         1 F9S       0.157000
     60 H31         -7.1090     2.1200    -0.1010 ha         1 F9S       0.113000
     61 H32         -9.3220     3.0810    -0.5260 ha         1 F9S       0.116000
     62 H33        -11.4570     2.7390    -0.7280 ho         1 F9S       0.470000
     63 H34        -11.5520    -1.5850     0.8840 h1         1 F9S       0.032700
     64 H35        -12.4120    -0.5360    -0.2440 h1         1 F9S       0.032700
     65 H36        -12.1800    -2.6530    -1.0800 ho         1 F9S       0.448000
@<TRIPOS>BOND
     1     1     2 ar  
     2     1     6 ar  
     3     1    31 1   
     4     2     3 ar  
     5     2    32 1   
     6     3     4 ar  
     7     3    33 1   
     8     4     5 ar  
     9     4    34 1   
    10     5     6 ar  
    11     5    35 1   
    12     6     7 1   
    13     7     8 1   
    14     7    36 1   
    15     7    37 1   
    16     8     9 1   
    17     8    38 1   
    18     8    39 1   
    19     9    10 1   
    20     9    40 1   
    21     9    41 1   
    22    10    11 1   
    23    10    42 1   
    24    10    43 1   
    25    11    12 1   
    26    12    13 1   
    27    12    44 1   
    28    12    45 1   
    29    13    14 1   
    30    13    46 1   
    31    13    47 1   
    32    14    15 1   
    33    14    48 1   
    34    14    49 1   
    35    15    16 1   
    36    15    50 1   
    37    15    51 1   
    38    16    17 1   
    39    16    52 1   
    40    16    53 1   
    41    17    18 1   
    42    17    54 1   
    43    17    55 1   
    44    18    19 1   
    45    18    56 1   
    46    19    20 1   
    47    19    57 1   
    48    19    58 1   
    49    20    21 2   
    50    20    22 1   
    51    22    23 ar  
    52    22    24 ar  
    53    23    28 ar  
    54    23    59 1   
    55    24    25 ar  
    56    24    60 1   
    57    25    26 ar  
    58    25    61 1   
    59    26    27 1   
    60    26    28 ar  
    61    27    62 1   
    62    28    29 1   
    63    29    30 1   
    64    29    63 1   
    65    29    64 1   
    66    30    65 1   
@<TRIPOS>SUBSTRUCTURE
     1 F9S         1 TEMP              0 ****  ****    0 ROOT
