@<TRIPOS>MOLECULE
F9T
   53    55     1     0     0
SMALL
No Charge or Current Charge


@<TRIPOS>ATOM
      1 CAA         35.6270    38.8160     3.9220 c3         1 F9T      -0.090100
      2 CAN         36.0920    39.7960     5.0160 c3         1 F9T      -0.076400
      3 CAO         36.0910    41.2690     4.5450 c3         1 F9T      -0.073400
      4 CAP         36.4680    42.2940     5.6420 c3         1 F9T      -0.073400
      5 CAQ         37.9250    42.1810     6.1500 c3         1 F9T      -0.073400
      6 CAR         38.2930    43.2720     7.1790 c3         1 F9T      -0.037100
      7 CAV         39.7290    43.1350     7.6660 ca         1 F9T      -0.031300
      8 CAM         40.0240    42.3400     8.7910 ca         1 F9T      -0.198000
      9 CAW         41.3490    42.2040     9.2400 ca         1 F9T       0.128100
     10 OAC         41.6040    41.4370    10.3440 oh         1 F9T      -0.516100
     11 CAF         40.7720    43.7980     6.9930 ca         1 F9T      -0.137000
     12 CAK         42.0990    43.6680     7.4360 ca         1 F9T      -0.076000
     13 CBA         42.3930    42.8680     8.5520 ca         1 F9T       0.053100
     14 OAU         43.7050    42.7570     8.9620 os         1 F9T      -0.235200
     15 CAY         44.4100    41.5750     8.8910 ca         1 F9T       0.147100
     16 CAJ         44.0090    40.5210     8.0420 ca         1 F9T      -0.148000
     17 CAH         44.7640    39.3350     7.9900 ca         1 F9T      -0.084000
     18 CAI         45.5690    41.4380     9.6740 ca         1 F9T      -0.148000
     19 CAG         46.3240    40.2520     9.6220 ca         1 F9T      -0.084000
     20 CAX         45.9250    39.2020     8.7700 ca         1 F9T       0.059100
     21 OAT         46.6370    38.0260     8.7060 os         1 F9T      -0.353400
     22 CAZ         48.0100    37.9830     8.7270 ca         1 F9T       0.628300
     23 CAE         48.7590    38.9520     8.0310 ca         1 F9T      -0.271000
     24 CAD         50.1590    38.8890     8.0480 ca         1 F9T      -0.016000
     25 CAL         50.7460    37.8380     8.7630 ca         1 F9T      -0.226000
     26 CBB         49.9110    36.9220     9.4070 ca         1 F9T       0.620300
     27 OAB         50.4010    35.8920    10.1010 oh         1 F9T      -0.644300
     28 NAS         48.5830    36.9680     9.4020 nb         1 F9T      -0.796000
     29 H1          35.6460    37.7860     4.2980 hc         1 F9T       0.032033
     30 H2          34.6030    39.0450     3.6050 hc         1 F9T       0.032033
     31 H3          36.2830    38.8730     3.0450 hc         1 F9T       0.032033
     32 H4          37.1010    39.5080     5.3340 hc         1 F9T       0.037200
     33 H5          35.4380    39.6920     5.8900 hc         1 F9T       0.037200
     34 H6          36.7770    41.3810     3.6960 hc         1 F9T       0.038700
     35 H7          35.0900    41.5180     4.1730 hc         1 F9T       0.038700
     36 H8          36.3130    43.3020     5.2390 hc         1 F9T       0.037200
     37 H9          35.7780    42.1870     6.4890 hc         1 F9T       0.037200
     38 H10         38.0800    41.1990     6.6120 hc         1 F9T       0.043200
     39 H11         38.6120    42.2470     5.2970 hc         1 F9T       0.043200
     40 H12         38.1420    44.2600     6.7270 hc         1 F9T       0.049700
     41 H13         37.6000    43.2150     8.0280 hc         1 F9T       0.049700
     42 H14         39.2170    41.8290     9.3110 ha         1 F9T       0.117000
     43 H15         40.7550    41.0770    10.6760 ho         1 F9T       0.468000
     44 H16         40.5550    44.4140     6.1230 ha         1 F9T       0.121000
     45 H17         42.9010    44.1820     6.9120 ha         1 F9T       0.131000
     46 H18         43.1210    40.6150     7.4230 ha         1 F9T       0.131500
     47 H19         44.4530    38.5210     7.3390 ha         1 F9T       0.130000
     48 H20         45.8780    42.2500    10.3260 ha         1 F9T       0.131500
     49 H21         47.2110    40.1520    10.2440 ha         1 F9T       0.130000
     50 H22         48.2540    39.7400     7.4810 ha         1 F9T       0.139000
     51 H24         50.7670    39.6240     7.5220 ha         1 F9T       0.119000
     52 H25         51.8250    37.7270     8.8170 ha         1 F9T       0.140000
     53 H23         49.5850    35.4550    10.4150 ho         1 F9T       0.488000
@<TRIPOS>BOND
     1     1     2 1   
     2     1    29 1   
     3     1    30 1   
     4     1    31 1   
     5     2     3 1   
     6     2    32 1   
     7     2    33 1   
     8     3     4 1   
     9     3    34 1   
    10     3    35 1   
    11     4     5 1   
    12     4    36 1   
    13     4    37 1   
    14     5     6 1   
    15     5    38 1   
    16     5    39 1   
    17     6     7 1   
    18     6    40 1   
    19     6    41 1   
    20     7     8 ar  
    21     7    11 ar  
    22     8     9 ar  
    23     8    42 1   
    24     9    10 1   
    25     9    13 ar  
    26    10    43 1   
    27    11    12 ar  
    28    11    44 1   
    29    12    13 ar  
    30    12    45 1   
    31    13    14 1   
    32    14    15 1   
    33    15    16 ar  
    34    15    18 ar  
    35    16    17 ar  
    36    16    46 1   
    37    17    20 ar  
    38    17    47 1   
    39    18    19 ar  
    40    18    48 1   
    41    19    20 ar  
    42    19    49 1   
    43    20    21 1   
    44    21    22 1   
    45    22    23 ar  
    46    22    28 ar  
    47    23    24 ar  
    48    23    50 1   
    49    24    25 ar  
    50    24    51 1   
    51    25    26 ar  
    52    25    52 1   
    53    26    27 1   
    54    26    28 ar  
    55    27    53 1   
@<TRIPOS>SUBSTRUCTURE
     1 F9T         1 TEMP              0 ****  ****    0 ROOT
