@<TRIPOS>MOLECULE
F9T
   53    55     1     0     0
SMALL
abcg2


@<TRIPOS>ATOM
      1 CAA         36.0750    38.5570     4.1160 c3         1 F9T      -0.090100
      2 CAN         36.5010    39.6430     5.0960 c3         1 F9T      -0.076400
      3 CAO         36.5010    41.0300     4.4630 c3         1 F9T      -0.073400
      4 CAP         36.8060    42.1690     5.4320 c3         1 F9T      -0.073400
      5 CAQ         38.1940    42.1030     6.0590 c3         1 F9T      -0.073400
      6 CAR         38.4900    43.3180     6.9400 c3         1 F9T      -0.037100
      7 CAV         39.8440    43.2340     7.5870 ca         1 F9T      -0.031300
      8 CAM         40.0140    42.4830     8.7480 ca         1 F9T      -0.198000
      9 CAW         41.2610    42.3490     9.3450 ca         1 F9T       0.128100
     10 OAC         41.4780    41.6410    10.4670 oh         1 F9T      -0.516100
     11 CAF         40.9510    43.8560     7.0220 ca         1 F9T      -0.137000
     12 CAK         42.2050    43.7220     7.6040 ca         1 F9T      -0.076000
     13 CBA         42.3620    42.9770     8.7560 ca         1 F9T       0.053100
     14 OAU         43.5920    42.8920     9.3580 os         1 F9T      -0.235200
     15 CAY         44.2570    41.7040     9.3210 ca         1 F9T       0.147100
     16 CAJ         43.9560    40.6850     8.4260 ca         1 F9T      -0.148000
     17 CAH         44.7030    39.5130     8.4420 ca         1 F9T      -0.084000
     18 CAI         45.3020    41.5520    10.2270 ca         1 F9T      -0.148000
     19 CAG         46.0410    40.3820    10.2420 ca         1 F9T      -0.084000
     20 CAX         45.7360    39.3650     9.3490 ca         1 F9T       0.059100
     21 OAT         46.4320    38.1780     9.3940 os         1 F9T      -0.353400
     22 CAZ         47.6670    38.1210     8.8500 ca         1 F9T       0.628300
     23 CAE         48.2190    39.1380     8.0820 ca         1 F9T      -0.271000
     24 CAD         49.4990    38.9200     7.5880 ca         1 F9T      -0.016000
     25 CAL         50.1730    37.7450     7.8570 ca         1 F9T      -0.226000
     26 CBB         49.5040    36.8030     8.6390 ca         1 F9T       0.620300
     27 OAB         50.1180    35.6540     8.9210 oh         1 F9T      -0.644300
     28 NAS         48.2890    36.9880     9.1190 nb         1 F9T      -0.796000
     29 H1          36.0780    37.5720     4.5830 hc         1 F9T       0.032033
     30 H2          35.0690    38.7410     3.7360 hc         1 F9T       0.032033
     31 H3          36.7480    38.5170     3.2570 hc         1 F9T       0.032033
     32 H4          37.4960    39.4070     5.4820 hc         1 F9T       0.037200
     33 H5          35.8310    39.6410     5.9620 hc         1 F9T       0.037200
     34 H6          37.2210    41.0510     3.6380 hc         1 F9T       0.038700
     35 H7          35.5200    41.2100     4.0100 hc         1 F9T       0.038700
     36 H8          36.7030    43.1210     4.9020 hc         1 F9T       0.037200
     37 H9          36.0530    42.1830     6.2270 hc         1 F9T       0.037200
     38 H10         38.2940    41.1960     6.6610 hc         1 F9T       0.043200
     39 H11         38.9510    42.0330     5.2710 hc         1 F9T       0.043200
     40 H12         38.4280    44.2270     6.3360 hc         1 F9T       0.049700
     41 H13         37.7170    43.4010     7.7090 hc         1 F9T       0.049700
     42 H14         39.1550    41.9990     9.2030 ha         1 F9T       0.117000
     43 H15         40.6570    41.2400    10.7760 ho         1 F9T       0.468000
     44 H16         40.8390    44.4470     6.1220 ha         1 F9T       0.121000
     45 H17         43.0700    44.2050     7.1660 ha         1 F9T       0.131000
     46 H18         43.1500    40.7880     7.7120 ha         1 F9T       0.131500
     47 H19         44.4700    38.7170     7.7470 ha         1 F9T       0.130000
     48 H20         45.5300    42.3470    10.9250 ha         1 F9T       0.131500
     49 H21         46.8480    40.2610    10.9530 ha         1 F9T       0.130000
     50 H22         47.6900    40.0550     7.8680 ha         1 F9T       0.139000
     51 H24         49.9720    39.6830     6.9830 ha         1 F9T       0.119000
     52 H25         51.1690    37.5550     7.4840 ha         1 F9T       0.140000
     53 H23         49.5350    35.1090     9.4680 ho         1 F9T       0.488000
@<TRIPOS>BOND
     1     1     2 1   
     2     1    29 1   
     3     1    30 1   
     4     1    31 1   
     5     2     3 1   
     6     2    32 1   
     7     2    33 1   
     8     3     4 1   
     9     3    34 1   
    10     3    35 1   
    11     4     5 1   
    12     4    36 1   
    13     4    37 1   
    14     5     6 1   
    15     5    38 1   
    16     5    39 1   
    17     6     7 1   
    18     6    40 1   
    19     6    41 1   
    20     7     8 ar  
    21     7    11 ar  
    22     8     9 ar  
    23     8    42 1   
    24     9    10 1   
    25     9    13 ar  
    26    10    43 1   
    27    11    12 ar  
    28    11    44 1   
    29    12    13 ar  
    30    12    45 1   
    31    13    14 1   
    32    14    15 1   
    33    15    16 ar  
    34    15    18 ar  
    35    16    17 ar  
    36    16    46 1   
    37    17    20 ar  
    38    17    47 1   
    39    18    19 ar  
    40    18    48 1   
    41    19    20 ar  
    42    19    49 1   
    43    20    21 1   
    44    21    22 1   
    45    22    23 ar  
    46    22    28 ar  
    47    23    24 ar  
    48    23    50 1   
    49    24    25 ar  
    50    24    51 1   
    51    25    26 ar  
    52    25    52 1   
    53    26    27 1   
    54    26    28 ar  
    55    27    53 1   
@<TRIPOS>SUBSTRUCTURE
     1 F9T         1 TEMP              0 ****  ****    0 ROOT
