@<TRIPOS>MOLECULE
F9V
   22    22     1     0     0
SMALL
No Charge or Current Charge


@<TRIPOS>ATOM
      1 CAJ         -2.7060     0.9100    -0.3220 c          1 F9V       0.732000
      2 OAP         -2.9610     1.4860    -1.3700 o          1 F9V      -0.762500
      3 CAK         -1.2710     1.0200     0.2430 c3         1 F9V      -0.160400
      4 CAL         -0.3520    -0.0860    -0.3700 c3         1 F9V      -0.148400
      5 CAM         -0.7400    -1.5130     0.0950 c          1 F9V       0.752000
      6 OAO         -1.0790    -2.3210    -0.7590 o          1 F9V      -0.746000
      7 OAN         -0.6250    -1.8040     1.2780 o          1 F9V      -0.746000
      8 CAU          1.1440     0.1590    -0.1320 ca         1 F9V       0.024700
      9 CAT          2.0610    -0.0790    -1.1770 ca         1 F9V      -0.118500
     10 CAS          3.4370     0.1390    -0.9860 ca         1 F9V      -0.134500
     11 CAR          3.9110     0.5940     0.2540 ca         1 F9V      -0.178000
     12 CAQ          3.0090     0.8290     1.3030 ca         1 F9V      -0.134500
     13 CAV          1.6330     0.6120     1.1130 ca         1 F9V      -0.118500
     14 OAM         -3.5210     0.2310     0.2840 o          1 F9V      -0.762500
     15 HAK1        -0.8210     1.9720    -0.0670 hc         1 F9V       0.000200
     16 HAK2        -1.2730     0.8720     1.3300 hc         1 F9V       0.000200
     17 HAL         -0.5190    -0.0520    -1.4530 hc         1 F9V       0.050700
     18 HAT          1.7070    -0.4340    -2.1420 ha         1 F9V       0.120000
     19 HAV          0.9510     0.7900     1.9400 ha         1 F9V       0.120000
     20 HAS          4.1340    -0.0470    -1.8000 ha         1 F9V       0.071500
     21 HAR          4.9750     0.7620     0.4020 ha         1 F9V       0.066000
     22 HAQ          3.3750     1.1780     2.2660 ha         1 F9V       0.071500
@<TRIPOS>BOND
     1     1     2 1   
     2     1     3 1   
     3     1    14 1   
     4     3     4 1   
     5     3    15 1   
     6     3    16 1   
     7     4     5 1   
     8     4     8 1   
     9     4    17 1   
    10     5     6 1   
    11     5     7 1   
    12     8     9 ar  
    13     8    13 ar  
    14     9    10 ar  
    15     9    18 1   
    16    10    11 ar  
    17    10    20 1   
    18    11    12 ar  
    19    11    21 1   
    20    12    13 ar  
    21    12    22 1   
    22    13    19 1   
@<TRIPOS>SUBSTRUCTURE
     1 F9V         1 TEMP              0 ****  ****    0 ROOT
