@<TRIPOS>MOLECULE
F9V
   22    22     1     0     0
SMALL
abcg2


@<TRIPOS>ATOM
      1 CAJ         -2.6990     0.8630    -0.1230 c          1 F9V       0.732000
      2 OAP         -3.0590     0.1070    -1.0470 o          1 F9V      -0.762500
      3 CAK         -1.1920     1.0180     0.1270 c3         1 F9V      -0.160400
      4 CAL         -0.3350    -0.0840    -0.4780 c3         1 F9V      -0.148400
      5 CAM         -0.7210    -1.4900     0.0380 c          1 F9V       0.752000
      6 OAO         -0.5020    -2.4440    -0.7360 o          1 F9V      -0.746000
      7 OAN         -1.1690    -1.5670     1.1990 o          1 F9V      -0.746000
      8 CAU          1.1320     0.1400    -0.2050 ca         1 F9V       0.024700
      9 CAT          2.0440     0.2770    -1.2490 ca         1 F9V      -0.118500
     10 CAS          3.3960     0.4900    -1.0040 ca         1 F9V      -0.134500
     11 CAR          3.8640     0.5700     0.3000 ca         1 F9V      -0.178000
     12 CAQ          2.9670     0.4310     1.3530 ca         1 F9V      -0.134500
     13 CAV          1.6190     0.2170     1.1020 ca         1 F9V      -0.118500
     14 OAM         -3.4530     1.5440     0.6060 o          1 F9V      -0.762500
     15 HAK1        -0.8790     1.9850    -0.2890 hc         1 F9V       0.000200
     16 HAK2        -1.0180     1.0930     1.2020 hc         1 F9V       0.000200
     17 HAL         -0.4720    -0.0780    -1.5620 hc         1 F9V       0.050700
     18 HAT          1.6910     0.2200    -2.2730 ha         1 F9V       0.120000
     19 HAV          0.9350     0.1030     1.9330 ha         1 F9V       0.120000
     20 HAS          4.0830     0.5960    -1.8350 ha         1 F9V       0.071500
     21 HAR          4.9160     0.7380     0.4950 ha         1 F9V       0.066000
     22 HAQ          3.3200     0.4900     2.3750 ha         1 F9V       0.071500
@<TRIPOS>BOND
     1     1     2 1   
     2     1     3 1   
     3     1    14 1   
     4     3     4 1   
     5     3    15 1   
     6     3    16 1   
     7     4     5 1   
     8     4     8 1   
     9     4    17 1   
    10     5     6 1   
    11     5     7 1   
    12     8     9 ar  
    13     8    13 ar  
    14     9    10 ar  
    15     9    18 1   
    16    10    11 ar  
    17    10    20 1   
    18    11    12 ar  
    19    11    21 1   
    20    12    13 ar  
    21    12    22 1   
    22    13    19 1   
@<TRIPOS>SUBSTRUCTURE
     1 F9V         1 TEMP              0 ****  ****    0 ROOT
