@<TRIPOS>MOLECULE
F9W
   34    35     1     0     0
SMALL
No Charge or Current Charge


@<TRIPOS>ATOM
      1 CAJ          1.9770     0.5080     0.8550 ca         1 F9W      -0.242000
      2 CAK          3.2460     1.0970     0.9350 ca         1 F9W       0.237500
      3 FAH          3.4400     2.1610     1.7430 f          1 F9W      -0.170500
      4 CAF          4.3160     0.5920     0.1870 ca         1 F9W      -0.240000
      5 CAQ          4.1110    -0.5130    -0.6450 ca         1 F9W       0.237500
      6 FAA          5.1390    -1.0080    -1.3680 f          1 F9W      -0.170500
      7 CAP          2.8470    -1.1100    -0.7330 ca         1 F9W      -0.242000
      8 CAI          1.7720    -0.6030     0.0100 ca         1 F9W       0.209100
      9 OAG          0.5550    -1.2450    -0.1210 os         1 F9W      -0.358100
     10 CAB         -0.6600    -0.7280     0.4730 c6         1 F9W       0.176500
     11 CAL         -1.1140     0.5290    -0.2710 c2         1 F9W      -0.211200
     12 CAC         -1.7540    -1.8390     0.4510 c6         1 F9W       0.185300
     13 OAR         -1.7730    -2.5020    -0.8330 oh         1 F9W      -0.720000
     14 CAD         -3.1470    -1.2330     0.7990 c6         1 F9W       0.152300
     15 OAT         -3.1440    -0.6490     2.1150 oh         1 F9W      -0.661000
     16 CAE         -3.5550    -0.1310    -0.2310 c6         1 F9W       0.167500
     17 OAS         -4.6700     0.6170     0.3030 oh         1 F9W      -0.729000
     18 CAM         -2.3960     0.8150    -0.5860 c2         1 F9W      -0.098400
     19 CAN         -2.7930     2.0650    -1.3650 c3         1 F9W       0.205800
     20 OAO         -1.8860     2.2960    -2.4520 oh         1 F9W      -0.662000
     21 H1           1.1780     0.9270     1.4560 ha         1 F9W       0.146500
     22 H2           5.2970     1.0530     0.2540 ha         1 F9W       0.152000
     23 H3           2.7000    -1.9680    -1.3820 ha         1 F9W       0.146500
     24 H4          -0.4700    -0.4840     1.5280 h1         1 F9W       0.082700
     25 H5          -0.3210     1.2170    -0.5650 ha         1 F9W       0.210000
     26 H6          -1.4990    -2.5720     1.2310 h1         1 F9W       0.058700
     27 H7          -0.8470    -2.4260    -1.1660 ho         1 F9W       0.528000
     28 H8          -3.8950    -2.0390     0.7580 h1         1 F9W       0.049700
     29 H9          -3.7330     0.1380     2.0070 ho         1 F9W       0.468000
     30 H10         -3.8540    -0.6380    -1.1620 h1         1 F9W       0.067700
     31 H11         -5.4900     0.1140     0.0810 ho         1 F9W       0.509000
     32 H12         -3.8140     1.9590    -1.7560 h1         1 F9W       0.034200
     33 H13         -2.7930     2.9250    -0.6820 h1         1 F9W       0.034200
     34 H14         -2.1970     3.1080    -2.9120 ho         1 F9W       0.448000
@<TRIPOS>BOND
     1     1     2 ar  
     2     1     8 ar  
     3     1    21 1   
     4     2     3 1   
     5     2     4 ar  
     6     4     5 ar  
     7     4    22 1   
     8     5     6 1   
     9     5     7 ar  
    10     7     8 ar  
    11     7    23 1   
    12     8     9 1   
    13     9    10 1   
    14    10    11 1   
    15    10    12 1   
    16    10    24 1   
    17    11    18 2   
    18    11    25 1   
    19    12    13 1   
    20    12    14 1   
    21    12    26 1   
    22    13    27 1   
    23    14    15 1   
    24    14    16 1   
    25    14    28 1   
    26    15    29 1   
    27    16    17 1   
    28    16    18 1   
    29    16    30 1   
    30    17    31 1   
    31    18    19 1   
    32    19    20 1   
    33    19    32 1   
    34    19    33 1   
    35    20    34 1   
@<TRIPOS>SUBSTRUCTURE
     1 F9W         1 TEMP              0 ****  ****    0 ROOT
