@<TRIPOS>MOLECULE
F9W
   34    35     1     0     0
SMALL
abcg2


@<TRIPOS>ATOM
      1 CAJ          1.9320     0.6010     0.7060 ca         1 F9W      -0.242000
      2 CAK          3.2230     1.0820     0.8210 ca         1 F9W       0.237500
      3 FAH          3.4150     2.1960     1.5370 f          1 F9W      -0.170500
      4 CAF          4.3200     0.4830     0.2380 ca         1 F9W      -0.240000
      5 CAQ          4.0660    -0.6640    -0.4950 ca         1 F9W       0.237500
      6 FAA          5.0990    -1.2800    -1.0800 f          1 F9W      -0.170500
      7 CAP          2.8090    -1.2000    -0.6520 ca         1 F9W      -0.242000
      8 CAI          1.7280    -0.5580    -0.0410 ca         1 F9W       0.209100
      9 OAG          0.5340    -1.1360    -0.2280 os         1 F9W      -0.358100
     10 CAB         -0.6440    -0.5920     0.3690 c6         1 F9W       0.176500
     11 CAL         -1.1450     0.5860    -0.4080 c2         1 F9W      -0.211200
     12 CAC         -1.6550    -1.7370     0.4090 c6         1 F9W       0.185300
     13 OAR         -1.8160    -2.3510    -0.8430 oh         1 F9W      -0.720000
     14 CAD         -3.0150    -1.1770     0.8010 c6         1 F9W       0.152300
     15 OAT         -2.8780    -0.5750     2.0610 oh         1 F9W      -0.661000
     16 CAE         -3.5030    -0.1690    -0.2430 c6         1 F9W       0.167500
     17 OAS         -4.6040     0.5560     0.2770 oh         1 F9W      -0.729000
     18 CAM         -2.4330     0.8090    -0.6510 c2         1 F9W      -0.098400
     19 CAN         -2.9200     2.0020    -1.4200 c3         1 F9W       0.205800
     20 OAO         -1.8400     2.7000    -1.9830 oh         1 F9W      -0.662000
     21 H1           1.1270     1.1370     1.1890 ha         1 F9W       0.146500
     22 H2           5.3180     0.8850     0.3470 ha         1 F9W       0.152000
     23 H3           2.6570    -2.0990    -1.2340 ha         1 F9W       0.146500
     24 H4          -0.4240    -0.3010     1.4020 h1         1 F9W       0.082700
     25 H5          -0.4030     1.2950    -0.7590 ha         1 F9W       0.210000
     26 H6          -1.3300    -2.4660     1.1660 h1         1 F9W       0.058700
     27 H7          -0.9750    -2.7360    -1.1070 ho         1 F9W       0.528000
     28 H8          -3.7380    -2.0070     0.8410 h1         1 F9W       0.049700
     29 H9          -3.6290     0.0190     2.1790 ho         1 F9W       0.468000
     30 H10         -3.8080    -0.7170    -1.1440 h1         1 F9W       0.067700
     31 H11         -5.3970     0.0210     0.1740 ho         1 F9W       0.509000
     32 H12         -3.6200     1.6520    -2.1930 h1         1 F9W       0.034200
     33 H13         -3.5060     2.6430    -0.7500 h1         1 F9W       0.034200
     34 H14         -2.1700     3.5330    -2.3290 ho         1 F9W       0.448000
@<TRIPOS>BOND
     1     1     2 ar  
     2     1     8 ar  
     3     1    21 1   
     4     2     3 1   
     5     2     4 ar  
     6     4     5 ar  
     7     4    22 1   
     8     5     6 1   
     9     5     7 ar  
    10     7     8 ar  
    11     7    23 1   
    12     8     9 1   
    13     9    10 1   
    14    10    11 1   
    15    10    12 1   
    16    10    24 1   
    17    11    18 2   
    18    11    25 1   
    19    12    13 1   
    20    12    14 1   
    21    12    26 1   
    22    13    27 1   
    23    14    15 1   
    24    14    16 1   
    25    14    28 1   
    26    15    29 1   
    27    16    17 1   
    28    16    18 1   
    29    16    30 1   
    30    17    31 1   
    31    18    19 1   
    32    19    20 1   
    33    19    32 1   
    34    19    33 1   
    35    20    34 1   
@<TRIPOS>SUBSTRUCTURE
     1 F9W         1 TEMP              0 ****  ****    0 ROOT
