@<TRIPOS>MOLECULE
F9Y
   17    18     1     0     0
SMALL
abcg2


@<TRIPOS>ATOM
      1 CAB         -2.8860    -0.2940    -0.0510 cg         1 F9Y       0.328000
      2 CAC         -1.4990     0.0370    -0.0330 ca         1 F9Y      -0.007000
      3 CAD         -1.1160     1.3950    -0.0210 ca         1 F9Y      -0.107000
      4 CAE          0.2140     1.7470    -0.0050 ca         1 F9Y      -0.064000
      5 CAF          1.1870     0.7410     0.0000 ca         1 F9Y      -0.078800
      6 CAG          0.7760    -0.6130    -0.0110 ca         1 F9Y      -0.061200
      7 CAH         -0.5600    -0.9840    -0.0280 ca         1 F9Y      -0.082000
      8 CAJ          3.0020    -0.5670     0.0130 cc         1 F9Y      -0.150100
      9 CAK          2.6110     0.7400     0.0150 cd         1 F9Y      -0.243200
     10 NAA         -4.0080    -0.5550    -0.0640 n1         1 F9Y      -0.461000
     11 NAI          1.9060    -1.3790    -0.0030 na         1 F9Y      -0.219700
     12 HAD         -1.8810     2.1580    -0.0260 ha         1 F9Y       0.123000
     13 HAE          0.4970     2.7910     0.0030 ha         1 F9Y       0.121000
     14 HAH         -0.8700    -2.0210    -0.0340 ha         1 F9Y       0.125000
     15 HAJ          3.9950    -0.9850     0.0230 h4         1 F9Y       0.215000
     16 HAK          3.2640     1.5970     0.0270 ha         1 F9Y       0.209000
     17 HAI          1.9290    -2.3820    -0.0090 hn         1 F9Y       0.352000
@<TRIPOS>BOND
     1     1     2 1   
     2     1    10 3   
     3     2     3 ar  
     4     2     7 ar  
     5     3     4 ar  
     6     3    12 1   
     7     4     5 ar  
     8     4    13 1   
     9     5     6 ar  
    10     5     9 1   
    11     6     7 ar  
    12     6    11 1   
    13     7    14 1   
    14     8     9 2   
    15     8    11 1   
    16     8    15 1   
    17     9    16 1   
    18    11    17 1   
@<TRIPOS>SUBSTRUCTURE
     1 F9Y         1 TEMP              0 ****  ****    0 ROOT
