@<TRIPOS>MOLECULE
F9Y
   17    18     1     0     0
SMALL
No Charge or Current Charge


@<TRIPOS>ATOM
      1 CAB         -2.9350    -0.2970    -0.0490 cg         1 F9Y       0.328000
      2 CAC         -1.5390     0.0460    -0.0330 ca         1 F9Y      -0.007000
      3 CAD         -1.1430     1.4110    -0.0220 ca         1 F9Y      -0.107000
      4 CAE          0.2250     1.7610    -0.0050 ca         1 F9Y      -0.064000
      5 CAF          1.1570     0.7180    -0.0000 ca         1 F9Y      -0.078800
      6 CAG          0.7870    -0.5960    -0.0110 ca         1 F9Y      -0.061200
      7 CAH         -0.5610    -0.9770    -0.0270 ca         1 F9Y      -0.082000
      8 CAJ          3.0830    -0.5840     0.0140 cc         1 F9Y      -0.150100
      9 CAK          2.5960     0.7150     0.0150 cd         1 F9Y      -0.243200
     10 NAA         -4.0710    -0.5680    -0.0670 n1         1 F9Y      -0.461000
     11 NAI          1.9240    -1.3920    -0.0030 na         1 F9Y      -0.219700
     12 HAD         -1.8950     2.1980    -0.0260 ha         1 F9Y       0.123000
     13 HAE          0.5420     2.8020     0.0030 ha         1 F9Y       0.121000
     14 HAH         -0.8440    -2.0280    -0.0350 ha         1 F9Y       0.125000
     15 HAJ          4.0970    -0.9800     0.0230 h4         1 F9Y       0.215000
     16 HAK          3.2210     1.6060     0.0260 ha         1 F9Y       0.209000
     17 HAI          1.9190    -2.4080    -0.0080 hn         1 F9Y       0.352000
@<TRIPOS>BOND
     1     1     2 1   
     2     1    10 3   
     3     2     3 ar  
     4     2     7 ar  
     5     3     4 ar  
     6     3    12 1   
     7     4     5 ar  
     8     4    13 1   
     9     5     6 ar  
    10     5     9 1   
    11     6     7 ar  
    12     6    11 1   
    13     7    14 1   
    14     8     9 2   
    15     8    11 1   
    16     8    15 1   
    17     9    16 1   
    18    11    17 1   
@<TRIPOS>SUBSTRUCTURE
     1 F9Y         1 TEMP              0 ****  ****    0 ROOT
