@<TRIPOS>MOLECULE
F9Z
   48    51     1     0     0
SMALL
No Charge or Current Charge


@<TRIPOS>ATOM
      1 C4          -2.0100    -0.3800     0.2430 c6         1 F9Z      -0.005400
      2 C14          4.1690    -0.6510     1.0930 ca         1 F9Z      -0.071000
      3 C5          -1.5180     1.0990     0.1890 ca         1 F9Z      -0.231300
      4 C6          -2.4190     2.1890     0.1450 ca         1 F9Z       0.252100
      5 C11          2.6450     1.7780     0.2320 cc         1 F9Z      -0.375200
      6 C7          -1.9490     3.5010     0.0940 ca         1 F9Z      -0.249000
      7 C8          -0.5840     3.7630     0.0930 ca         1 F9Z       0.280100
      8 C9           0.3380     2.7090     0.1380 ca         1 F9Z      -0.380600
      9 C10          1.8040     2.9570     0.1590 c          1 F9Z       0.614900
     10 C12          2.1420     0.4990     0.1870 cd         1 F9Z       0.215900
     11 C13          2.9310    -0.7410     0.4090 ca         1 F9Z      -0.069800
     12 N1          -3.9890    -2.5860     0.4270 n3         1 F9Z      -0.718600
     13 C3          -2.7600    -0.7180     1.5630 c6         1 F9Z      -0.074400
     14 C1          -4.4880    -3.9760     0.5120 c3         1 F9Z       0.155100
     15 C2          -3.1650    -2.2110     1.6090 c6         1 F9Z       0.162800
     16 O1          -3.7670     2.0120     0.1590 oh         1 F9Z      -0.531100
     17 O2          -0.1640     5.0520     0.0530 oh         1 F9Z      -0.538100
     18 O3           2.2690     4.0880     0.1360 o          1 F9Z      -0.600100
     19 C15          4.9450    -1.7930     1.3500 ca         1 F9Z      -0.114000
     20 C16          4.5080    -3.0520     0.9210 ca         1 F9Z      -0.081000
     21 C17          3.2950    -3.1640     0.2260 ca         1 F9Z      -0.114000
     22 C18          2.5090    -2.0270    -0.0340 ca         1 F9Z       0.149000
     23 Cl1          1.0660    -2.2860    -1.0180 cl         1 F9Z      -0.164000
     24 O4           0.7820     0.3450     0.2140 os         1 F9Z      -0.204200
     25 C19         -0.1260     1.3840     0.1780 ca         1 F9Z       0.253100
     26 C20         -2.8480    -0.8260    -0.9970 c6         1 F9Z       0.174300
     27 O5          -2.1020    -0.6220    -2.2070 oh         1 F9Z      -0.645000
     28 C21         -3.2630    -2.3220    -0.8500 c6         1 F9Z       0.123800
     29 H1          -1.1380    -1.0430     0.2450 hc         1 F9Z       0.080700
     30 H3           3.7050     1.9850     0.2730 ha         1 F9Z       0.218000
     31 H4          -2.6540     4.3260     0.0610 ha         1 F9Z       0.151000
     32 H6          -2.1150    -0.4910     2.4230 hc         1 F9Z       0.050700
     33 H7          -3.6610    -0.1050     1.6840 hc         1 F9Z       0.050700
     34 H8          -3.6560    -4.6930     0.5110 h1         1 F9Z       0.032700
     35 H9          -5.0690    -4.1240     1.4320 h1         1 F9Z       0.032700
     36 H10         -5.1420    -4.2060    -0.3400 h1         1 F9Z       0.032700
     37 H11         -3.7250    -2.3950     2.5380 h1         1 F9Z       0.036700
     38 H12         -2.2560    -2.8300     1.6520 h1         1 F9Z       0.036700
     39 H13         -3.9390     1.0560     0.2540 ho         1 F9Z       0.480000
     40 H14          0.8260     5.0020     0.0720 ho         1 F9Z       0.524000
     41 H15          5.8860    -1.7000     1.8880 ha         1 F9Z       0.125000
     42 H16          5.1100    -3.9370     1.1180 ha         1 F9Z       0.122000
     43 H17          2.9670    -4.1380    -0.1270 ha         1 F9Z       0.133000
     44 H18         -3.7730    -0.2360    -1.0400 h1         1 F9Z       0.029700
     45 H19         -2.7120    -0.8110    -2.9530 ho         1 F9Z       0.443000
     46 H20         -2.3610    -2.9510    -0.9080 h1         1 F9Z       0.039200
     47 H21         -3.9000    -2.5940    -1.7050 h1         1 F9Z       0.039200
     48 H2           4.5300     0.3050     1.4630 ha         1 F9Z       0.128000
@<TRIPOS>BOND
     1     1     3 1   
     2     1    13 1   
     3     1    26 1   
     4     1    29 1   
     5     2    11 ar  
     6     2    19 ar  
     7     2    48 1   
     8     3     4 ar  
     9     3    25 ar  
    10     4     6 ar  
    11     4    16 1   
    12     5     9 1   
    13     5    10 2   
    14     5    30 1   
    15     6     7 ar  
    16     6    31 1   
    17     7     8 ar  
    18     7    17 1   
    19     8     9 1   
    20     8    25 ar  
    21     9    18 2   
    22    10    11 1   
    23    10    24 1   
    24    11    22 ar  
    25    12    14 1   
    26    12    15 1   
    27    12    28 1   
    28    13    15 1   
    29    13    32 1   
    30    13    33 1   
    31    14    34 1   
    32    14    35 1   
    33    14    36 1   
    34    15    37 1   
    35    15    38 1   
    36    16    39 1   
    37    17    40 1   
    38    19    20 ar  
    39    19    41 1   
    40    20    21 ar  
    41    20    42 1   
    42    21    22 ar  
    43    21    43 1   
    44    22    23 1   
    45    24    25 1   
    46    26    27 1   
    47    26    28 1   
    48    26    44 1   
    49    27    45 1   
    50    28    46 1   
    51    28    47 1   
@<TRIPOS>SUBSTRUCTURE
     1 F9Z         1 TEMP              0 ****  ****    0 ROOT
