@<TRIPOS>MOLECULE
F9Z
   48    51     1     0     0
SMALL
abcg2


@<TRIPOS>ATOM
      1 C4          -1.9900    -0.3490     0.3600 c6         1 F9Z      -0.005400
      2 C14          3.8670    -0.7800     1.2670 ca         1 F9Z      -0.071000
      3 C5          -1.5280     1.0860     0.2510 ca         1 F9Z      -0.231300
      4 C6          -2.3880     2.1860     0.1300 ca         1 F9Z       0.252100
      5 C11          2.5860     1.7320     0.1790 cc         1 F9Z      -0.375200
      6 C7          -1.9240     3.5010     0.0420 ca         1 F9Z      -0.249000
      7 C8          -0.5710     3.7660     0.0510 ca         1 F9Z       0.280100
      8 C9           0.3430     2.6930     0.1520 ca         1 F9Z      -0.380600
      9 C10          1.7710     2.9190     0.1250 c          1 F9Z       0.614900
     10 C12          2.0100     0.5200     0.3090 cd         1 F9Z       0.215900
     11 C13          2.7580    -0.7400     0.4200 ca         1 F9Z      -0.069800
     12 N1          -3.8190    -2.5820     0.4560 n3         1 F9Z      -0.718600
     13 C3          -2.8350    -0.6550     1.6030 c6         1 F9Z      -0.074400
     14 C1          -4.2470    -3.9590     0.5500 c3         1 F9Z       0.155100
     15 C2          -3.1570    -2.1390     1.6670 c6         1 F9Z       0.162800
     16 O1          -3.7240     2.0710     0.0870 oh         1 F9Z      -0.531100
     17 O2          -0.1410     5.0200    -0.0380 oh         1 F9Z      -0.538100
     18 O3           2.2550     4.0590     0.0410 o          1 F9Z      -0.600100
     19 C15          4.6180    -1.9340     1.4120 ca         1 F9Z      -0.114000
     20 C16          4.2650    -3.0750     0.7070 ca         1 F9Z      -0.081000
     21 C17          3.1720    -3.0580    -0.1450 ca         1 F9Z      -0.114000
     22 C18          2.4240    -1.8990    -0.2870 ca         1 F9Z       0.149000
     23 CL1          1.1040    -1.9160    -1.4030 cl         1 F9Z      -0.164000
     24 O4           0.6880     0.3600     0.3790 os         1 F9Z      -0.204200
     25 C19         -0.1700     1.3960     0.2530 ca         1 F9Z       0.253100
     26 C20         -2.6960    -0.8740    -0.8920 c6         1 F9Z       0.174300
     27 O5          -1.8660    -0.6350    -1.9980 oh         1 F9Z      -0.645000
     28 C21         -2.9860    -2.3600    -0.7070 c6         1 F9Z       0.123800
     29 H1          -1.0960    -0.9700     0.4550 hc         1 F9Z       0.080700
     30 H3           3.6610     1.8160     0.1070 ha         1 F9Z       0.218000
     31 H4          -2.6370     4.3110    -0.0420 ha         1 F9Z       0.151000
     32 H6          -2.2830    -0.3620     2.4980 hc         1 F9Z       0.050700
     33 H7          -3.7710    -0.0910     1.6210 hc         1 F9Z       0.050700
     34 H8          -3.4150    -4.6680     0.6840 h1         1 F9Z       0.032700
     35 H9          -4.9300    -4.0840     1.3920 h1         1 F9Z       0.032700
     36 H10         -4.7830    -4.2460    -0.3560 h1         1 F9Z       0.032700
     37 H11         -3.8140    -2.3320     2.5180 h1         1 F9Z       0.036700
     38 H12         -2.2230    -2.7010     1.8510 h1         1 F9Z       0.036700
     39 H13         -4.0170     1.1550     0.1230 ho         1 F9Z       0.480000
     40 H14          0.8470     4.9930    -0.0230 ho         1 F9Z       0.524000
     41 H15          5.4680    -1.9420     2.0790 ha         1 F9Z       0.125000
     42 H16          4.8410    -3.9850     0.8140 ha         1 F9Z       0.122000
     43 H17          2.9040    -3.9420    -0.7070 ha         1 F9Z       0.133000
     44 H18         -3.6710    -0.3800    -1.0280 h1         1 F9Z       0.029700
     45 H19         -2.3190    -0.9480    -2.7880 ho         1 F9Z       0.443000
     46 H20         -2.0260    -2.9050    -0.6460 h1         1 F9Z       0.039200
     47 H21         -3.5110    -2.7370    -1.5900 h1         1 F9Z       0.039200
     48 H2           4.1280     0.1050     1.8320 ha         1 F9Z       0.128000
@<TRIPOS>BOND
     1     1     3 1   
     2     1    13 1   
     3     1    26 1   
     4     1    29 1   
     5     2    11 ar  
     6     2    19 ar  
     7     2    48 1   
     8     3     4 ar  
     9     3    25 ar  
    10     4     6 ar  
    11     4    16 1   
    12     5     9 1   
    13     5    10 2   
    14     5    30 1   
    15     6     7 ar  
    16     6    31 1   
    17     7     8 ar  
    18     7    17 1   
    19     8     9 1   
    20     8    25 ar  
    21     9    18 2   
    22    10    11 1   
    23    10    24 1   
    24    11    22 ar  
    25    12    14 1   
    26    12    15 1   
    27    12    28 1   
    28    13    15 1   
    29    13    32 1   
    30    13    33 1   
    31    14    34 1   
    32    14    35 1   
    33    14    36 1   
    34    15    37 1   
    35    15    38 1   
    36    16    39 1   
    37    17    40 1   
    38    19    20 ar  
    39    19    41 1   
    40    20    21 ar  
    41    20    42 1   
    42    21    22 ar  
    43    21    43 1   
    44    22    23 1   
    45    24    25 1   
    46    26    27 1   
    47    26    28 1   
    48    26    44 1   
    49    27    45 1   
    50    28    46 1   
    51    28    47 1   
@<TRIPOS>SUBSTRUCTURE
     1 F9Z         1 TEMP              0 ****  ****    0 ROOT
