@<TRIPOS>MOLECULE
FA0
   16    16     1     0     0
SMALL
abcg2


@<TRIPOS>ATOM
      1 OAA          2.8190    -0.7340     0.0970 o          1 FA0      -0.728500
      2 CAB          2.1540     0.3280    -0.0000 c          1 FA0       0.724600
      3 OAC          2.6370     1.4720    -0.0580 o          1 FA0      -0.728500
      4 CAD          0.6410     0.2110    -0.0340 ca         1 FA0      -0.226600
      5 CAE         -0.1180     1.3770     0.0120 ca         1 FA0      -0.027000
      6 CAF         -1.5040     1.3830     0.0310 ca         1 FA0      -0.246000
      7 CAG         -2.1340     0.1520     0.0020 ca         1 FA0       0.185000
      8 FAH         -3.4790     0.1100     0.0260 f          1 FA0      -0.217000
      9 CAI         -1.4470    -1.0370    -0.0520 ca         1 FA0      -0.286000
     10 CAJ         -0.0410    -1.0320    -0.0760 ca         1 FA0       0.365000
     11 NAK          0.6240    -2.2160    -0.1850 nv         1 FA0      -1.109000
     12 H2           0.4080     2.3210     0.0430 ha         1 FA0       0.128000
     13 H3          -2.0710     2.3040     0.0730 ha         1 FA0       0.105000
     14 H4          -1.9890    -1.9750    -0.0810 ha         1 FA0       0.101000
     15 H5           0.1430    -3.0510     0.0990 hn         1 FA0       0.480500
     16 H6           1.6150    -2.1480     0.0110 hn         1 FA0       0.480500
@<TRIPOS>BOND
     1     1     2 1   
     2     2     3 1   
     3     2     4 1   
     4     4     5 ar  
     5     4    10 ar  
     6     5     6 ar  
     7     5    12 1   
     8     6     7 ar  
     9     6    13 1   
    10     7     8 1   
    11     7     9 ar  
    12     9    10 ar  
    13     9    14 1   
    14    10    11 1   
    15    11    15 1   
    16    11    16 1   
@<TRIPOS>SUBSTRUCTURE
     1 FA0         1 TEMP              0 ****  ****    0 ROOT
