@<TRIPOS>MOLECULE
FA0
   16    16     1     0     0
SMALL
No Charge or Current Charge


@<TRIPOS>ATOM
      1 OAA          2.8020    -0.5750     0.5370 o          1 FA0      -0.728500
      2 CAB          2.1550     0.3000    -0.0230 c          1 FA0       0.724600
      3 OAC          2.6720     1.2710    -0.5550 o          1 FA0      -0.728500
      4 CAD          0.6500     0.2210    -0.0140 ca         1 FA0      -0.226600
      5 CAE         -0.1010     1.4150     0.0800 ca         1 FA0      -0.027000
      6 CAF         -1.5050     1.3720     0.0890 ca         1 FA0      -0.246000
      7 CAG         -2.1650     0.1410    -0.0010 ca         1 FA0       0.185000
      8 FAH         -3.5140     0.1000     0.0070 f          1 FA0      -0.217000
      9 CAI         -1.4330    -1.0470    -0.0990 ca         1 FA0      -0.286000
     10 CAJ         -0.0360    -1.0080    -0.1080 ca         1 FA0       0.365000
     11 NAK          0.6270    -2.1920    -0.2140 nv         1 FA0      -1.109000
     12 H2           0.4040     2.3770     0.1530 ha         1 FA0       0.128000
     13 H3          -2.0790     2.2910     0.1640 ha         1 FA0       0.105000
     14 H4          -1.9600    -1.9930    -0.1730 ha         1 FA0       0.101000
     15 H5           0.1250    -3.0460     0.0140 hn         1 FA0       0.480500
     16 H6           1.6150    -2.1630     0.0510 hn         1 FA0       0.480500
@<TRIPOS>BOND
     1     1     2 1   
     2     2     3 1   
     3     2     4 1   
     4     4     5 ar  
     5     4    10 ar  
     6     5     6 ar  
     7     5    12 1   
     8     6     7 ar  
     9     6    13 1   
    10     7     8 1   
    11     7     9 ar  
    12     9    10 ar  
    13     9    14 1   
    14    10    11 1   
    15    11    15 1   
    16    11    16 1   
@<TRIPOS>SUBSTRUCTURE
     1 FA0         1 TEMP              0 ****  ****    0 ROOT
