@<TRIPOS>MOLECULE
FA1
   21    21     1     0     0
SMALL
abcg2


@<TRIPOS>ATOM
      1 C2           0.9560     0.2110     0.0470 c6         1 FA1      -0.065400
      2 C3           0.7410    -0.1750     1.4990 c6         1 FA1       0.172300
      3 O3           1.8250     0.3080     2.2610 oh         1 FA1      -0.674000
      4 C4          -0.5850     0.4020     1.9710 c6         1 FA1       0.175500
      5 O4          -0.8490    -0.1200     3.2610 oh         1 FA1      -0.682000
      6 C5          -1.6810     0.0660     0.9990 c2         1 FA1      -0.310200
      7 C6          -1.4650    -0.2890    -0.2620 c2         1 FA1      -0.112200
      8 C           -0.0600     0.2580    -2.2600 c          1 FA1       0.702000
      9 O1          -0.3780     1.4520    -2.3210 o          1 FA1      -0.707000
     10 O30          0.1730    -1.8050    -1.0510 oh         1 FA1      -0.701000
     11 O2           0.2950    -0.4900    -3.2000 o          1 FA1      -0.707000
     12 C1          -0.0940    -0.4310    -0.8660 c6         1 FA1       0.047200
     13 H2C1         0.9020     1.3000    -0.0440 hc         1 FA1       0.059200
     14 H2C2         1.9540    -0.0940    -0.2820 hc         1 FA1       0.059200
     15 H3           0.6780    -1.2720     1.5710 h1         1 FA1       0.052700
     16 HB           1.6650     0.0820     3.1830 ho         1 FA1       0.434000
     17 H4          -0.4760     1.4970     2.0220 h1         1 FA1       0.035700
     18 HA          -1.5440     0.4060     3.6690 ho         1 FA1       0.429000
     19 H5          -2.7000     0.1400     1.3710 ha         1 FA1       0.148000
     20 H6          -2.3100    -0.5360    -0.8990 ha         1 FA1       0.168000
     21 H30          0.3760    -1.8420    -2.0070 ho         1 FA1       0.477000
@<TRIPOS>BOND
     1     1     2 1   
     2     1    12 1   
     3     1    13 1   
     4     1    14 1   
     5     2     3 1   
     6     2     4 1   
     7     2    15 1   
     8     3    16 1   
     9     4     5 1   
    10     4     6 1   
    11     4    17 1   
    12     5    18 1   
    13     6     7 2   
    14     6    19 1   
    15     7    12 1   
    16     7    20 1   
    17     8     9 1   
    18     8    11 1   
    19     8    12 1   
    20    10    12 1   
    21    10    21 1   
@<TRIPOS>SUBSTRUCTURE
     1 FA1         1 TEMP              0 ****  ****    0 ROOT
