@<TRIPOS>MOLECULE
FA1
   21    21     1     0     0
SMALL
No Charge or Current Charge


@<TRIPOS>ATOM
      1 C2           1.0370     0.1840     0.0340 c6         1 FA1      -0.065400
      2 C3           0.8100    -0.2010     1.5150 c6         1 FA1       0.172300
      3 O3           1.8980     0.2570     2.3360 oh         1 FA1      -0.674000
      4 C4          -0.5430     0.3980     2.0160 c6         1 FA1       0.175500
      5 O4          -0.8750    -0.1020     3.3140 oh         1 FA1      -0.682000
      6 C5          -1.6730     0.0900     1.0540 c2         1 FA1      -0.310200
      7 C6          -1.4700    -0.2400    -0.2370 c2         1 FA1      -0.112200
      8 C           -0.0080     0.3240    -2.3070 c          1 FA1       0.702000
      9 O1          -0.7360     1.2900    -2.5010 o          1 FA1      -0.707000
     10 O30          0.1480    -1.8090    -1.0580 oh         1 FA1      -0.701000
     11 O2           0.3630    -0.3880    -3.2350 o          1 FA1      -0.707000
     12 C1          -0.0850    -0.3890    -0.8870 c6         1 FA1       0.047200
     13 H2C1         1.0580     1.2790    -0.0520 hc         1 FA1       0.059200
     14 H2C2         2.0210    -0.1690    -0.3050 hc         1 FA1       0.059200
     15 H3           0.7420    -1.2980     1.5770 h1         1 FA1       0.052700
     16 HB           1.5620     0.1910     3.2580 ho         1 FA1       0.434000
     17 H4          -0.4340     1.4930     2.0610 h1         1 FA1       0.035700
     18 HA          -1.7350     0.3060     3.5550 ho         1 FA1       0.429000
     19 H5          -2.6880     0.1750     1.4430 ha         1 FA1       0.148000
     20 H6          -2.3200    -0.4330    -0.8940 ha         1 FA1       0.168000
     21 H30          0.3520    -1.8890    -2.0250 ho         1 FA1       0.477000
@<TRIPOS>BOND
     1     1     2 1   
     2     1    12 1   
     3     1    13 1   
     4     1    14 1   
     5     2     3 1   
     6     2     4 1   
     7     2    15 1   
     8     3    16 1   
     9     4     5 1   
    10     4     6 1   
    11     4    17 1   
    12     5    18 1   
    13     6     7 2   
    14     6    19 1   
    15     7    12 1   
    16     7    20 1   
    17     8     9 1   
    18     8    11 1   
    19     8    12 1   
    20    10    12 1   
    21    10    21 1   
@<TRIPOS>SUBSTRUCTURE
     1 FA1         1 TEMP              0 ****  ****    0 ROOT
