@<TRIPOS>MOLECULE
FA3
   21    21     1     0     0
SMALL
No Charge or Current Charge


@<TRIPOS>ATOM
      1 C2           1.2710     0.2370    -0.2640 c6         1 FA3      -0.069400
      2 F1          -2.4040     0.1570     1.8220 f          1 FA3      -0.211500
      3 C3           1.2770    -0.1520     1.2340 c6         1 FA3       0.172300
      4 O3           2.4590     0.3430     1.8830 oh         1 FA3      -0.670000
      5 C4          -0.0000     0.4020     1.9350 c6         1 FA3       0.164500
      6 O4          -0.0970    -0.0990     3.2800 oh         1 FA3      -0.671000
      7 C5          -1.2580     0.0650     1.1330 c2         1 FA3       0.017300
      8 C6          -1.2310    -0.2610    -0.1710 c2         1 FA3      -0.154200
      9 C           -0.1030     0.3290    -2.4310 c          1 FA3       0.703000
     10 O1          -0.8780     1.2720    -2.5180 o          1 FA3      -0.703500
     11 O30          0.2910    -1.7870    -1.2050 oh         1 FA3      -0.698000
     12 O2           0.1470    -0.3810    -3.4000 o          1 FA3      -0.703500
     13 C1           0.0460    -0.3740    -1.0120 c6         1 FA3       0.056200
     14 H2C1         1.2450     1.3320    -0.3490 hc         1 FA3       0.062200
     15 H2C2         2.2050    -0.0860    -0.7440 hc         1 FA3       0.062200
     16 H3           1.2530    -1.2510     1.3010 h1         1 FA3       0.056700
     17 HB           2.2720     0.2630     2.8460 ho         1 FA3       0.435000
     18 H4           0.0780     1.5000     1.9600 h1         1 FA3       0.045700
     19 HA          -1.0430    -0.0020     3.5290 ho         1 FA3       0.438000
     20 H6          -2.1640    -0.4720    -0.6950 ha         1 FA3       0.189000
     21 H30          0.3590    -1.8740    -2.1900 ho         1 FA3       0.479000
@<TRIPOS>BOND
     1     1     3 1   
     2     1    13 1   
     3     1    14 1   
     4     1    15 1   
     5     2     7 1   
     6     3     4 1   
     7     3     5 1   
     8     3    16 1   
     9     4    17 1   
    10     5     6 1   
    11     5     7 1   
    12     5    18 1   
    13     6    19 1   
    14     7     8 2   
    15     8    13 1   
    16     8    20 1   
    17     9    10 1   
    18     9    12 1   
    19     9    13 1   
    20    11    13 1   
    21    11    21 1   
@<TRIPOS>SUBSTRUCTURE
     1 FA3         1 TEMP              0 ****  ****    0 ROOT
