@<TRIPOS>MOLECULE
FA3
   21    21     1     0     0
SMALL
abcg2


@<TRIPOS>ATOM
      1 C2           1.1770     0.2730    -0.2410 c6         1 FA3      -0.069400
      2 F1          -2.4280     0.1090     1.7330 f          1 FA3      -0.211500
      3 C3           1.2000    -0.1340     1.2190 c6         1 FA3       0.172300
      4 O3           2.3510     0.4010     1.8270 oh         1 FA3      -0.670000
      5 C4          -0.0680     0.3650     1.9040 c6         1 FA3       0.164500
      6 O4          -0.1420    -0.2320     3.1790 oh         1 FA3      -0.671000
      7 C5          -1.2590     0.0210     1.0590 c2         1 FA3       0.017300
      8 C6          -1.2470    -0.3080    -0.2200 c2         1 FA3      -0.154200
      9 C           -0.1380     0.2530    -2.3890 c          1 FA3       0.703000
     10 O1          -0.5120     1.4320    -2.4140 o          1 FA3      -0.703500
     11 O30          0.3290    -1.7840    -1.2010 oh         1 FA3      -0.698000
     12 O2           0.1310    -0.4900    -3.3600 o          1 FA3      -0.703500
     13 C1           0.0370    -0.4200    -0.9960 c6         1 FA3       0.056200
     14 H2C1         1.0600     1.3580    -0.3140 hc         1 FA3       0.062200
     15 H2C2         2.1270     0.0150    -0.7160 hc         1 FA3       0.062200
     16 H3           1.2030    -1.2330     1.2830 h1         1 FA3       0.056700
     17 HB           2.3550     0.1300     2.7510 ho         1 FA3       0.435000
     18 H4          -0.0010     1.4600     1.9910 h1         1 FA3       0.045700
     19 HA          -0.6920     0.3120     3.7500 ho         1 FA3       0.438000
     20 H6          -2.1790    -0.5410    -0.7250 ha         1 FA3       0.189000
     21 H30          0.4200    -1.8260    -2.1740 ho         1 FA3       0.479000
@<TRIPOS>BOND
     1     1     3 1   
     2     1    13 1   
     3     1    14 1   
     4     1    15 1   
     5     2     7 1   
     6     3     4 1   
     7     3     5 1   
     8     3    16 1   
     9     4    17 1   
    10     5     6 1   
    11     5     7 1   
    12     5    18 1   
    13     6    19 1   
    14     7     8 2   
    15     8    13 1   
    16     8    20 1   
    17     9    10 1   
    18     9    12 1   
    19     9    13 1   
    20    11    13 1   
    21    11    21 1   
@<TRIPOS>SUBSTRUCTURE
     1 FA3         1 TEMP              0 ****  ****    0 ROOT
