@<TRIPOS>MOLECULE
FA6
   24    24     1     0     0
SMALL
abcg2


@<TRIPOS>ATOM
      1 O2          29.6600    68.2890    20.8090 o          1 FA6      -0.707000
      2 C7          30.1080    69.2440    20.1390 c          1 FA6       0.732000
      3 O1          31.2830    69.3840    19.7180 o          1 FA6      -0.707000
      4 C1          29.1360    70.4090    19.7600 c6         1 FA6       0.048000
      5 O3          27.8370    70.1200    20.2940 oh         1 FA6      -0.633000
      6 C2          29.0570    70.4990    18.2200 c6         1 FA6      -0.168700
      7 C3          28.2970    71.7230    17.8050 c2         1 FA6       0.383300
      8 N1          27.2200    71.7660    17.1270 n2         1 FA6      -0.343700
      9 O6          26.7710    70.4930    16.7200 oh         1 FA6      -0.524000
     10 C4          28.8700    73.0150    18.3270 c6         1 FA6       0.093000
     11 O4          28.1300    74.1370    17.8750 oh         1 FA6      -0.655000
     12 C5          28.9120    72.9510    19.8650 c6         1 FA6       0.137300
     13 O5          29.5690    74.1060    20.3920 oh         1 FA6      -0.670000
     14 C6          29.6740    71.7250    20.3420 c6         1 FA6      -0.093400
     15 H3          27.2040    70.7630    19.9480 ho         1 FA6       0.397000
     16 H2C1        28.5990    69.5960    17.8260 hc         1 FA6       0.085200
     17 H2C2        30.0770    70.5700    17.8400 hc         1 FA6       0.085200
     18 H6          25.9650    70.6990    16.2290 ho         1 FA6       0.445000
     19 H4C         29.9080    73.0820    17.9740 h1         1 FA6       0.058700
     20 H4          28.6710    74.9220    18.0240 ho         1 FA6       0.433000
     21 H5C         27.8770    72.9320    20.2230 h1         1 FA6       0.036700
     22 H5          28.9410    74.8380    20.4070 ho         1 FA6       0.425000
     23 H6C1        30.7200    71.8300    20.0520 hc         1 FA6       0.072200
     24 H6C2        29.6310    71.6770    21.4320 hc         1 FA6       0.072200
@<TRIPOS>BOND
     1     1     2 1   
     2     2     3 1   
     3     2     4 1   
     4     4     5 1   
     5     4     6 1   
     6     4    14 1   
     7     5    15 1   
     8     6     7 1   
     9     6    16 1   
    10     6    17 1   
    11     7     8 2   
    12     7    10 1   
    13     8     9 1   
    14     9    18 1   
    15    10    11 1   
    16    10    12 1   
    17    10    19 1   
    18    11    20 1   
    19    12    13 1   
    20    12    14 1   
    21    12    21 1   
    22    13    22 1   
    23    14    23 1   
    24    14    24 1   
@<TRIPOS>SUBSTRUCTURE
     1 FA6         1 TEMP              0 ****  ****    0 ROOT
