@<TRIPOS>MOLECULE
FA6
   24    24     1     0     0
SMALL
No Charge or Current Charge


@<TRIPOS>ATOM
      1 O2          30.0420    69.0580    21.3740 o          1 FA6      -0.707000
      2 C7          29.9770    69.2390    20.1640 c          1 FA6       0.732000
      3 O1          30.1340    68.3040    19.3870 o          1 FA6      -0.707000
      4 C1          29.0610    70.4580    19.6900 c6         1 FA6       0.048000
      5 O3          27.7060    70.2910    20.1730 oh         1 FA6      -0.633000
      6 C2          29.0230    70.5890    18.1320 c6         1 FA6      -0.168700
      7 C3          28.2780    71.8420    17.6390 c2         1 FA6       0.383300
      8 N1          27.3210    71.8730    16.7500 n2         1 FA6      -0.343700
      9 O6          26.9160    70.6330    16.2120 oh         1 FA6      -0.524000
     10 C4          28.8710    73.1330    18.2460 c6         1 FA6       0.093000
     11 O4          28.1910    74.3470    17.8450 oh         1 FA6      -0.655000
     12 C5          28.8790    73.0450    19.7960 c6         1 FA6       0.137300
     13 O5          29.4860    74.2240    20.3490 oh         1 FA6      -0.670000
     14 C6          29.6480    71.7860    20.2680 c6         1 FA6      -0.093400
     15 H3          27.7810    69.8470    21.0470 ho         1 FA6       0.397000
     16 H2C1        28.5900    69.6730    17.7130 hc         1 FA6       0.085200
     17 H2C2        30.0490    70.6270    17.7430 hc         1 FA6       0.085200
     18 H6          26.1950    70.8530    15.5740 ho         1 FA6       0.445000
     19 H4C         29.9190    73.1880    17.9150 h1         1 FA6       0.058700
     20 H4          28.4650    75.0150    18.5150 ho         1 FA6       0.433000
     21 H5C         27.8380    72.9700    20.1440 h1         1 FA6       0.036700
     22 H5          29.4040    74.1560    21.3260 ho         1 FA6       0.425000
     23 H6C1        30.7050    71.8730    19.9800 hc         1 FA6       0.072200
     24 H6C2        29.6380    71.7460    21.3660 hc         1 FA6       0.072200
@<TRIPOS>BOND
     1     1     2 1   
     2     2     3 1   
     3     2     4 1   
     4     4     5 1   
     5     4     6 1   
     6     4    14 1   
     7     5    15 1   
     8     6     7 1   
     9     6    16 1   
    10     6    17 1   
    11     7     8 2   
    12     7    10 1   
    13     8     9 1   
    14     9    18 1   
    15    10    11 1   
    16    10    12 1   
    17    10    19 1   
    18    11    20 1   
    19    12    13 1   
    20    12    14 1   
    21    12    21 1   
    22    13    22 1   
    23    14    23 1   
    24    14    24 1   
@<TRIPOS>SUBSTRUCTURE
     1 FA6         1 TEMP              0 ****  ****    0 ROOT
