@<TRIPOS>MOLECULE
FA7
   24    23     1     0     0
SMALL
abcg2


@<TRIPOS>ATOM
      1 C1          -3.3860    -0.2590    -0.2270 c          1 FA7       0.695200
      2 O           -2.7660    -1.3330    -0.0880 o          1 FA7      -0.727500
      3 C2          -2.6300     1.0440    -0.1220 ce         1 FA7      -0.216200
      4 C3          -1.3260     1.2450     0.1240 cf         1 FA7      -0.246000
      5 C4          -0.2750     0.2680     0.3510 cf         1 FA7      -0.098000
      6 C5           0.9910     0.6350     0.5870 c2         1 FA7      -0.314200
      7 C6           2.1230    -0.3120     0.8110 c3         1 FA7      -0.017200
      8 C7           3.1460    -0.3450    -0.3360 c3         1 FA7      -0.062700
      9 C8           3.7610     1.0260    -0.6020 c3         1 FA7      -0.082100
     10 C9           4.2280    -1.3770    -0.0400 c3         1 FA7      -0.082100
     11 OXT         -4.6100    -0.1390    -0.4500 o          1 FA7      -0.727500
     12 H2          -3.2360     1.9340    -0.2650 ha         1 FA7       0.143000
     13 H3          -0.9920     2.2800     0.1620 ha         1 FA7       0.120000
     14 H4          -0.5400    -0.7810     0.3240 ha         1 FA7       0.211000
     15 H5           1.2280     1.6970     0.6140 ha         1 FA7       0.147000
     16 H61          2.6480    -0.0350     1.7320 hc         1 FA7       0.031200
     17 H62          1.7310    -1.3210     0.9640 hc         1 FA7       0.031200
     18 H7           2.6150    -0.6600    -1.2410 hc         1 FA7       0.052700
     19 H81          3.0100     1.7600    -0.8950 hc         1 FA7       0.024033
     20 H82          4.2690     1.4080     0.2870 hc         1 FA7       0.024033
     21 H83          4.4970     0.9720    -1.4050 hc         1 FA7       0.024033
     22 H91          3.8010    -2.3700     0.1150 hc         1 FA7       0.024033
     23 H92          4.9440    -1.4480    -0.8610 hc         1 FA7       0.024033
     24 H93          4.7850    -1.1130     0.8630 hc         1 FA7       0.024033
@<TRIPOS>BOND
     1     1     2 1   
     2     1     3 1   
     3     1    11 1   
     4     3     4 2   
     5     3    12 1   
     6     4     5 1   
     7     4    13 1   
     8     5     6 2   
     9     5    14 1   
    10     6     7 1   
    11     6    15 1   
    12     7     8 1   
    13     7    16 1   
    14     7    17 1   
    15     8     9 1   
    16     8    10 1   
    17     8    18 1   
    18     9    19 1   
    19     9    20 1   
    20     9    21 1   
    21    10    22 1   
    22    10    23 1   
    23    10    24 1   
@<TRIPOS>SUBSTRUCTURE
     1 FA7         1 TEMP              0 ****  ****    0 ROOT
