@<TRIPOS>MOLECULE
FA7
   24    23     1     0     0
SMALL
No Charge or Current Charge


@<TRIPOS>ATOM
      1 C1          -3.1660    -0.2670    -0.6490 c          1 FA7       0.695200
      2 O           -2.5000    -1.2880    -0.6930 o          1 FA7      -0.727500
      3 C2          -2.5630     1.0110    -0.1360 ce         1 FA7      -0.216200
      4 C3          -1.2990     1.2730     0.3300 cf         1 FA7      -0.246000
      5 C4          -0.1690     0.3580     0.4560 cf         1 FA7      -0.098000
      6 C5           1.0350     0.7400     0.9360 c2         1 FA7      -0.314200
      7 C6           2.2480    -0.1570     1.0900 c3         1 FA7      -0.017200
      8 C7           3.0110    -0.3900    -0.2400 c3         1 FA7      -0.062700
      9 C8           3.5680     0.9250    -0.8370 c3         1 FA7      -0.082100
     10 C9           4.1320    -1.4390    -0.0670 c3         1 FA7      -0.082100
     11 OXT         -4.3330    -0.2230    -1.0070 o          1 FA7      -0.727500
     12 H2          -3.2610     1.8460    -0.1460 ha         1 FA7       0.143000
     13 H3          -1.1050     2.2980     0.6500 ha         1 FA7       0.120000
     14 H4          -0.3020    -0.6810     0.1470 ha         1 FA7       0.211000
     15 H5           1.1910     1.7740     1.2490 ha         1 FA7       0.147000
     16 H61          2.9360     0.2730     1.8290 hc         1 FA7       0.031200
     17 H62          1.9320    -1.1260     1.4960 hc         1 FA7       0.031200
     18 H7           2.2950    -0.8010    -0.9630 hc         1 FA7       0.052700
     19 H81          2.7600     1.6370    -1.0430 hc         1 FA7       0.024033
     20 H82          4.2750     1.3980    -0.1450 hc         1 FA7       0.024033
     21 H83          4.0890     0.7300    -1.7810 hc         1 FA7       0.024033
     22 H91          3.7230    -2.3890     0.2990 hc         1 FA7       0.024033
     23 H92          4.6310    -1.6350    -1.0240 hc         1 FA7       0.024033
     24 H93          4.8870    -1.0910     0.6490 hc         1 FA7       0.024033
@<TRIPOS>BOND
     1     1     2 1   
     2     1     3 1   
     3     1    11 1   
     4     3     4 2   
     5     3    12 1   
     6     4     5 1   
     7     4    13 1   
     8     5     6 2   
     9     5    14 1   
    10     6     7 1   
    11     6    15 1   
    12     7     8 1   
    13     7    16 1   
    14     7    17 1   
    15     8     9 1   
    16     8    10 1   
    17     8    18 1   
    18     9    19 1   
    19     9    20 1   
    20     9    21 1   
    21    10    22 1   
    22    10    23 1   
    23    10    24 1   
@<TRIPOS>SUBSTRUCTURE
     1 FA7         1 TEMP              0 ****  ****    0 ROOT
