@<TRIPOS>MOLECULE
FA8
   86    91     1     0     0
SMALL
No Charge or Current Charge


@<TRIPOS>ATOM
      1 PA          29.3700   125.2640     8.5730 p5         1 FA8       1.483800
      2 O1A         27.9650   124.8350     8.8260 o          1 FA8      -0.836000
      3 O2A         30.2810   124.6430     9.5740 o          1 FA8      -0.836000
      4 O5B         29.8620   124.9100     7.0820 os         1 FA8      -0.582400
      5 C5B         31.2590   124.9280     6.7590 c3         1 FA8       0.223600
      6 C4B         31.7430   123.4680     6.4780 c5         1 FA8       0.102300
      7 O4B         33.1210   123.4660     6.0380 os         1 FA8      -0.471000
      8 C3B         31.8130   122.4850     7.6840 c5         1 FA8       0.106300
      9 O3B         32.0230   121.1250     7.2410 oh         1 FA8      -0.724000
     10 C2B         33.0860   123.0260     8.4080 c5         1 FA8       0.095300
     11 O2B         33.6900   121.9780     9.1780 oh         1 FA8      -0.688000
     12 C1B         33.9790   123.5320     7.2070 c5         1 FA8       0.261300
     13 N9A         34.5660   124.8690     7.3730 na         1 FA8      -0.268300
     14 C8A         35.1650   125.3180     8.5570 cc         1 FA8       0.449700
     15 N7A         35.6450   126.5690     8.4290 nd         1 FA8      -0.577100
     16 C5A         35.3420   126.8950     7.1040 ca         1 FA8      -0.089600
     17 C6A         35.6100   128.0840     6.3930 ca         1 FA8       0.440900
     18 N6A         36.2440   129.1490     6.9530 nv         1 FA8      -1.077900
     19 N1A         35.2430   128.2280     5.1110 nb         1 FA8      -0.322000
     20 C2A         34.6140   127.1660     4.5530 ca         1 FA8       0.159900
     21 N3A         34.3190   125.9900     5.1550 nb         1 FA8      -0.212000
     22 C4A         34.6930   125.8760     6.4470 ca         1 FA8       0.125500
     23 N1          21.3870   127.1270    13.6800 ne         1 FA8      -0.742100
     24 C2          20.0630   127.3440    13.3410 c          1 FA8       0.737400
     25 O2          19.7010   128.0960    12.4600 o          1 FA8      -0.507000
     26 N3          19.1740   126.6030    14.0400 ns         1 FA8      -0.498500
     27 C4          19.3840   125.7810    15.0920 c          1 FA8       0.590000
     28 O4          18.4920   125.0550    15.5090 o          1 FA8      -0.546000
     29 C4X         20.7650   125.8840    15.7540 c6         1 FA8       0.012200
     30 N5          21.2510   124.6000    16.3770 nu         1 FA8      -0.878200
     31 C5X         22.6230   124.3510    16.4910 ca         1 FA8       0.240000
     32 C6          23.0410   123.2870    17.3040 ca         1 FA8      -0.136000
     33 C7          24.4050   122.9880    17.4570 ca         1 FA8      -0.064300
     34 C7M         24.8210   121.8230    18.3510 c3         1 FA8      -0.040800
     35 C8          25.3610   123.7710    16.7770 ca         1 FA8      -0.083300
     36 C8M         26.8540   123.4740    16.9070 c3         1 FA8      -0.038800
     37 C9          24.9410   124.8400    15.9590 ca         1 FA8      -0.087000
     38 C9A         23.5710   125.1690    15.7940 ca         1 FA8       0.272000
     39 C10         21.7570   126.4560    14.7260 c2         1 FA8       0.728200
     40 C1          24.1250   127.0900    14.1860 c3         1 FA8       0.218800
     41 C11         24.4750   126.5880    12.7440 c3         1 FA8       0.143300
     42 O6          24.9660   125.2320    12.7620 oh         1 FA8      -0.758000
     43 C3          25.5340   127.4950    12.0300 c3         1 FA8       0.123300
     44 O3          25.0420   128.8480    11.9700 oh         1 FA8      -0.651000
     45 C12         25.9100   126.9840    10.5920 c3         1 FA8       0.180300
     46 O7          26.3820   125.6070    10.6590 oh         1 FA8      -0.847000
     47 C5          26.9590   127.8990     9.8880 c3         1 FA8       0.219600
     48 O5          27.1610   127.3990     8.5640 os         1 FA8      -0.605400
     49 P           28.5300   127.7130     7.7800 p5         1 FA8       1.470800
     50 O1P         28.8820   129.1560     7.9270 o          1 FA8      -0.845000
     51 O3P         29.5600   126.8260     8.5820 os         1 FA8      -0.727800
     52 O2P         28.4320   127.3510     6.3370 o          1 FA8      -0.845000
     53 H5B1        31.4190   125.5250     5.8520 h1         1 FA8       0.044200
     54 H5B2        31.8540   125.3870     7.5590 h1         1 FA8       0.044200
     55 H4B         31.1130   123.0660     5.6730 h1         1 FA8       0.086700
     56 H3B         30.9190   122.5610     8.3230 h1         1 FA8       0.170700
     57 H1B         34.8310   122.8580     7.0570 h2         1 FA8       0.075700
     58 HA          32.4620   121.1860     6.3590 ho         1 FA8       0.488000
     59 H2B         32.8120   123.8710     9.0570 h1         1 FA8       0.119700
     60 HB          33.3050   121.1530     8.7880 ho         1 FA8       0.503000
     61 H8A         35.2180   124.7030     9.4490 h5         1 FA8       0.096800
     62 H6A1        36.1430   130.0540     6.5010 hn         1 FA8       0.498500
     63 H6A2        36.3350   129.1510     7.9660 hn         1 FA8       0.498500
     64 H2A         34.3130   127.2690     3.5120 h5         1 FA8       0.029100
     65 H3          18.2250   126.6470    13.7030 hn         1 FA8       0.331500
     66 H4X         20.6600   126.6500    16.5350 h1         1 FA8       0.061700
     67 H5          20.6040   124.0030    16.9020 hn         1 FA8       0.472000
     68 H6          22.2970   122.6870    17.8210 ha         1 FA8       0.111000
     69 H7M1        25.3690   121.0640    17.7800 hc         1 FA8       0.036700
     70 H7M2        25.4670   122.1630    19.1690 hc         1 FA8       0.036700
     71 H7M3        23.9550   121.3270    18.8040 hc         1 FA8       0.036700
     72 HM81        27.4640   124.1690    16.3170 hc         1 FA8       0.038033
     73 HM82        27.1830   123.5570    17.9490 hc         1 FA8       0.038033
     74 HM83        27.0860   122.4610    16.5580 hc         1 FA8       0.038033
     75 H9          25.7090   125.4000    15.4420 ha         1 FA8       0.121000
     76 H1'1        23.7430   128.1170    14.1100 h1         1 FA8       0.061200
     77 H1'2        25.0550   127.2070    14.7520 h1         1 FA8       0.061200
     78 H2          23.5560   126.6310    12.1440 h1         1 FA8       0.071700
     79 HC          25.5620   125.2000    11.9410 ho         1 FA8       0.573000
     80 H10         26.4480   127.4770    12.6400 h1         1 FA8       0.032700
     81 HD          25.8140   129.4510    12.0400 ho         1 FA8       0.415000
     82 H4          24.9960   127.0210     9.9840 h1         1 FA8       0.053700
     83 HE          26.9570   125.4220     9.8280 ho         1 FA8       0.619000
     84 H5'1        26.5870   128.9310     9.8430 h1         1 FA8       0.015700
     85 H5'2        27.8940   127.8950    10.4650 h1         1 FA8       0.015700
     86 N10         23.1320   126.2680    14.9530 nh         1 FA8      -0.694400
@<TRIPOS>BOND
     1     1     2 1   
     2     1     3 1   
     3     1     4 1   
     4     1    51 1   
     5     4     5 1   
     6     5     6 1   
     7     5    53 1   
     8     5    54 1   
     9     6     7 1   
    10     6     8 1   
    11     6    55 1   
    12     7    12 1   
    13     8     9 1   
    14     8    10 1   
    15     8    56 1   
    16     9    58 1   
    17    10    11 1   
    18    10    12 1   
    19    10    59 1   
    20    11    60 1   
    21    12    13 1   
    22    12    57 1   
    23    13    14 1   
    24    13    22 1   
    25    14    15 2   
    26    14    61 1   
    27    15    16 1   
    28    16    17 ar  
    29    16    22 ar  
    30    17    18 1   
    31    17    19 ar  
    32    18    62 1   
    33    18    63 1   
    34    19    20 ar  
    35    20    21 ar  
    36    20    64 1   
    37    21    22 ar  
    38    23    24 1   
    39    23    39 2   
    40    24    25 2   
    41    24    26 1   
    42    26    27 1   
    43    26    65 1   
    44    27    28 2   
    45    27    29 1   
    46    29    30 1   
    47    29    39 1   
    48    29    66 1   
    49    30    31 1   
    50    30    67 1   
    51    31    32 ar  
    52    31    38 ar  
    53    32    33 ar  
    54    32    68 1   
    55    33    34 1   
    56    33    35 ar  
    57    34    69 1   
    58    34    70 1   
    59    34    71 1   
    60    35    36 1   
    61    35    37 ar  
    62    36    72 1   
    63    36    73 1   
    64    36    74 1   
    65    37    38 ar  
    66    37    75 1   
    67    38    86 1   
    68    39    86 1   
    69    40    41 1   
    70    40    76 1   
    71    40    77 1   
    72    40    86 1   
    73    41    42 1   
    74    41    43 1   
    75    41    78 1   
    76    42    79 1   
    77    43    44 1   
    78    43    45 1   
    79    43    80 1   
    80    44    81 1   
    81    45    46 1   
    82    45    47 1   
    83    45    82 1   
    84    46    83 1   
    85    47    48 1   
    86    47    84 1   
    87    47    85 1   
    88    48    49 1   
    89    49    50 1   
    90    49    51 1   
    91    49    52 1   
@<TRIPOS>SUBSTRUCTURE
     1 FA8         1 TEMP              0 ****  ****    0 ROOT
