@<TRIPOS>MOLECULE
FA8
   86    91     1     0     0
SMALL
abcg2


@<TRIPOS>ATOM
      1 PA          28.6840   125.8910     8.9200 p5         1 FA8       1.483800
      2 O1A         27.1740   125.8560     8.9340 o          1 FA8      -0.836000
      3 O2A         29.4730   124.8190     9.5980 o          1 FA8      -0.836000
      4 O5B         29.0580   125.9790     7.3320 os         1 FA8      -0.582400
      5 C5B         30.4010   126.1200     6.9270 c3         1 FA8       0.223600
      6 C4B         30.7900   124.9510     6.0290 c5         1 FA8       0.102300
      7 O4B         32.0850   125.2180     5.4750 os         1 FA8      -0.471000
      8 C3B         30.9110   123.6180     6.7620 c5         1 FA8       0.106300
      9 O3B         30.6260   122.4880     5.9680 oh         1 FA8      -0.724000
     10 C2B         32.3820   123.6440     7.1910 c5         1 FA8       0.095300
     11 O2B         32.9350   122.4130     7.5260 oh         1 FA8      -0.688000
     12 C1B         33.0390   124.3230     5.9800 c5         1 FA8       0.261300
     13 N9A         34.2530   125.0340     6.2860 na         1 FA8      -0.268300
     14 C8A         34.4030   126.0910     7.1450 cc         1 FA8       0.449700
     15 N7A         35.6150   126.5540     7.1890 nd         1 FA8      -0.577100
     16 C5A         36.3140   125.7640     6.3120 ca         1 FA8      -0.089600
     17 C6A         37.6600   125.7480     5.9040 ca         1 FA8       0.440900
     18 N6A         38.5680   126.6010     6.3800 nv         1 FA8      -1.077900
     19 N1A         38.0310   124.8300     5.0050 nb         1 FA8      -0.322000
     20 C2A         37.1220   123.9790     4.5370 ca         1 FA8       0.159900
     21 N3A         35.8380   123.8970     4.8400 nb         1 FA8      -0.212000
     22 C4A         35.4840   124.8150     5.7360 ca         1 FA8       0.125500
     23 N1          21.3070   125.6890    13.1280 ne         1 FA8      -0.742100
     24 C2          20.3320   125.0670    12.4090 c          1 FA8       0.737400
     25 O2          19.7470   125.6090    11.4970 o          1 FA8      -0.507000
     26 N3          20.0230   123.7340    12.7050 ns         1 FA8      -0.498500
     27 C4          20.5560   123.0020    13.7120 c          1 FA8       0.590000
     28 O4          20.3750   121.8140    13.8470 o          1 FA8      -0.546000
     29 C4X         21.3530   123.7990    14.7210 c6         1 FA8       0.012200
     30 N5          22.4930   123.0380    15.1530 nu         1 FA8      -0.878200
     31 C5X         23.2510   123.7030    16.1060 ca         1 FA8       0.240000
     32 C6          23.8590   123.0530    17.1730 ca         1 FA8      -0.136000
     33 C7          24.6180   123.7430    18.1080 ca         1 FA8      -0.064300
     34 C7M         25.2670   123.0120    19.2450 c3         1 FA8      -0.040800
     35 C8          24.7480   125.1320    17.9840 ca         1 FA8      -0.083300
     36 C8M         25.5350   125.9200    18.9900 c3         1 FA8      -0.038800
     37 C9          24.1400   125.7770    16.9150 ca         1 FA8      -0.087000
     38 C9A         23.4100   125.0810    15.9600 ca         1 FA8       0.272000
     39 C10         21.8330   125.1110    14.1630 c2         1 FA8       0.728200
     40 C1          23.3940   126.9390    14.2850 c3         1 FA8       0.218800
     41 C11         24.3450   126.6530    13.1250 c3         1 FA8       0.143300
     42 O6          25.2150   125.6250    13.5260 oh         1 FA8      -0.758000
     43 C3          25.1400   127.9160    12.7420 c3         1 FA8       0.123300
     44 O3          24.3070   129.0510    12.6240 oh         1 FA8      -0.651000
     45 C12         25.8290   127.7400    11.3820 c3         1 FA8       0.180300
     46 O7          26.3710   126.4460    11.3120 oh         1 FA8      -0.847000
     47 C5          26.8940   128.8090    11.1610 c3         1 FA8       0.219600
     48 O5          27.2260   128.8730     9.7860 os         1 FA8      -0.605400
     49 P           28.7660   128.8680     9.2390 p5         1 FA8       1.470800
     50 O1P         29.6400   129.6960    10.1250 o          1 FA8      -0.845000
     51 O3P         29.2340   127.3010     9.5260 os         1 FA8      -0.727800
     52 O2P         28.6650   129.1000     7.7680 o          1 FA8      -0.845000
     53 H5B1        30.5030   127.0520     6.3650 h1         1 FA8       0.044200
     54 H5B2        31.0890   126.1820     7.7760 h1         1 FA8       0.044200
     55 H4B         30.0680   124.8780     5.2080 h1         1 FA8       0.086700
     56 H3B         30.2480   123.5670     7.6260 h1         1 FA8       0.170700
     57 H1B         33.3150   123.5720     5.2290 h2         1 FA8       0.075700
     58 HA          30.9400   122.6090     5.0650 ho         1 FA8       0.488000
     59 H2B         32.4780   124.2900     8.0690 h1         1 FA8       0.119700
     60 HB          32.5890   121.7550     6.9100 ho         1 FA8       0.503000
     61 H8A         33.5730   126.4830     7.7140 h5         1 FA8       0.096800
     62 H6A1        39.5120   126.5810     6.0340 hn         1 FA8       0.498500
     63 H6A2        38.3110   127.3300     7.0220 hn         1 FA8       0.498500
     64 H2A         37.4870   123.2610     3.8100 h5         1 FA8       0.029100
     65 H3          19.3970   123.2630    12.0630 hn         1 FA8       0.331500
     66 H4X         20.6470   124.0320    15.5430 h1         1 FA8       0.061700
     67 H5          22.2620   122.0840    15.3960 hn         1 FA8       0.472000
     68 H6          23.7320   121.9800    17.2700 ha         1 FA8       0.111000
     69 H7M1        26.3510   123.1390    19.2340 hc         1 FA8       0.036700
     70 H7M2        24.9180   123.3820    20.2110 hc         1 FA8       0.036700
     71 H7M3        25.0580   121.9440    19.2020 hc         1 FA8       0.036700
     72 HM81        25.5430   126.9810    18.7430 hc         1 FA8       0.038033
     73 HM82        25.1220   125.8170    19.9950 hc         1 FA8       0.038033
     74 HM83        26.5730   125.5850    19.0410 hc         1 FA8       0.038033
     75 H9          24.2500   126.8510    16.8470 ha         1 FA8       0.121000
     76 H1'1        22.5760   127.5760    13.9590 h1         1 FA8       0.061200
     77 H1'2        23.9160   127.4610    15.0830 h1         1 FA8       0.061200
     78 H2          23.7390   126.3450    12.2600 h1         1 FA8       0.071700
     79 HC          25.8280   125.5240    12.7780 ho         1 FA8       0.573000
     80 H10         25.8980   128.0680    13.5250 h1         1 FA8       0.032700
     81 HD          24.2540   129.4900    13.4770 ho         1 FA8       0.415000
     82 H4          25.0440   127.8740    10.6200 h1         1 FA8       0.053700
     83 HE          26.6200   126.2200    10.3720 ho         1 FA8       0.619000
     84 H5'1        26.5160   129.7850    11.4790 h1         1 FA8       0.015700
     85 H5'2        27.7610   128.5760    11.7890 h1         1 FA8       0.015700
     86 N10         22.8290   125.7040    14.8280 nh         1 FA8      -0.694400
@<TRIPOS>BOND
     1     1     2 1   
     2     1     3 1   
     3     1     4 1   
     4     1    51 1   
     5     4     5 1   
     6     5     6 1   
     7     5    53 1   
     8     5    54 1   
     9     6     7 1   
    10     6     8 1   
    11     6    55 1   
    12     7    12 1   
    13     8     9 1   
    14     8    10 1   
    15     8    56 1   
    16     9    58 1   
    17    10    11 1   
    18    10    12 1   
    19    10    59 1   
    20    11    60 1   
    21    12    13 1   
    22    12    57 1   
    23    13    14 1   
    24    13    22 1   
    25    14    15 2   
    26    14    61 1   
    27    15    16 1   
    28    16    17 ar  
    29    16    22 ar  
    30    17    18 1   
    31    17    19 ar  
    32    18    62 1   
    33    18    63 1   
    34    19    20 ar  
    35    20    21 ar  
    36    20    64 1   
    37    21    22 ar  
    38    23    24 1   
    39    23    39 2   
    40    24    25 2   
    41    24    26 1   
    42    26    27 1   
    43    26    65 1   
    44    27    28 2   
    45    27    29 1   
    46    29    30 1   
    47    29    39 1   
    48    29    66 1   
    49    30    31 1   
    50    30    67 1   
    51    31    32 ar  
    52    31    38 ar  
    53    32    33 ar  
    54    32    68 1   
    55    33    34 1   
    56    33    35 ar  
    57    34    69 1   
    58    34    70 1   
    59    34    71 1   
    60    35    36 1   
    61    35    37 ar  
    62    36    72 1   
    63    36    73 1   
    64    36    74 1   
    65    37    38 ar  
    66    37    75 1   
    67    38    86 1   
    68    39    86 1   
    69    40    41 1   
    70    40    76 1   
    71    40    77 1   
    72    40    86 1   
    73    41    42 1   
    74    41    43 1   
    75    41    78 1   
    76    42    79 1   
    77    43    44 1   
    78    43    45 1   
    79    43    80 1   
    80    44    81 1   
    81    45    46 1   
    82    45    47 1   
    83    45    82 1   
    84    46    83 1   
    85    47    48 1   
    86    47    84 1   
    87    47    85 1   
    88    48    49 1   
    89    49    50 1   
    90    49    51 1   
    91    49    52 1   
@<TRIPOS>SUBSTRUCTURE
     1 FA8         1 TEMP              0 ****  ****    0 ROOT
