@<TRIPOS>MOLECULE
FA9
  104   111     1     0     0
SMALL
abcg2


@<TRIPOS>ATOM
      1 O4          26.7900     7.1080    12.2430 o          1 FA9      -0.516000
      2 O2          23.3020     5.1310    14.3250 o          1 FA9      -0.550000
      3 C4          25.9300     6.2600    12.2510 c          1 FA9       0.591000
      4 N3          25.1340     6.0270    13.3330 ns         1 FA9      -0.458500
      5 C2          24.1040     5.0950    13.4160 c          1 FA9       0.640000
      6 N1          24.0850     4.1890    12.4150 ns         1 FA9      -0.522900
      7 C10         25.1830     4.0140    11.5050 c6         1 FA9       0.412900
      8 C4A         25.6200     5.3940    11.0340 c5         1 FA9       0.019400
      9 C3B         24.5520     6.0520    10.1010 c5         1 FA9      -0.003400
     10 CB1         23.5660     6.9840    10.7590 ca         1 FA9      -0.087300
     11 CB2         22.2740     6.5350    11.0260 ca         1 FA9      -0.095000
     12 CB3         21.3430     7.3610    11.6390 ca         1 FA9      -0.108000
     13 CB4         21.6890     8.6570    11.9940 ca         1 FA9      -0.102000
     14 CB5         22.9690     9.1200    11.7240 ca         1 FA9      -0.108000
     15 CB6         23.8980     8.2920    11.1080 ca         1 FA9      -0.095000
     16 C2B         25.3910     6.6650     8.9830 c5         1 FA9      -0.169400
     17 C1B         26.7000     5.9210     9.0110 c          1 FA9       0.581000
     18 O1B         27.5410     5.9190     8.1390 o          1 FA9      -0.540000
     19 N5          26.7840     5.2680    10.2050 n          1 FA9      -0.200400
     20 C5A         27.8650     4.5270    10.7130 ca         1 FA9      -0.111000
     21 C6          29.1770     4.7670    10.3150 ca         1 FA9      -0.079000
     22 C7          30.2420     4.0420    10.8250 ca         1 FA9      -0.112300
     23 C7M         31.6430     4.3150    10.3610 c3         1 FA9      -0.031800
     24 C8          29.9790     3.0640    11.7900 ca         1 FA9      -0.049300
     25 C8M         31.0980     2.2600    12.3840 c3         1 FA9      -0.046800
     26 C9          28.6760     2.8520    12.2140 ca         1 FA9      -0.125000
     27 C9A         27.5870     3.5570    11.6880 ca         1 FA9       0.310000
     28 N10         26.2880     3.3170    12.1290 nh         1 FA9      -0.824400
     29 C1          25.9410     2.0110    12.6730 c3         1 FA9       0.215800
     30 C12         25.7600     1.9800    14.1950 c3         1 FA9       0.178300
     31 O7          26.8160     2.6910    14.7860 oh         1 FA9      -0.749000
     32 C3          25.7090     0.5170    14.6720 c3         1 FA9       0.119300
     33 O3          24.6490    -0.1130    13.9790 oh         1 FA9      -0.683000
     34 C11         25.4790     0.3750    16.1870 c3         1 FA9       0.168300
     35 O6          26.4680     1.1310    16.8490 oh         1 FA9      -0.835000
     36 C5          25.5350    -1.0910    16.5930 c3         1 FA9       0.206600
     37 O5          25.1230    -1.2200    17.9410 os         1 FA9      -0.595400
     38 P           25.8850    -2.2560    18.9560 p5         1 FA9       1.461800
     39 O1P         25.1150    -2.2120    20.2330 o          1 FA9      -0.842500
     40 O2P         26.2000    -3.5340    18.2480 o          1 FA9      -0.842500
     41 O3P         27.3520    -1.5080    19.1490 os         1 FA9      -0.724800
     42 PA          27.7000    -0.0710    19.8450 p5         1 FA9       1.476800
     43 O1A         29.1530     0.1690    19.5940 o          1 FA9      -0.839000
     44 O2A         26.6630     0.9570    19.4680 o          1 FA9      -0.839000
     45 OA5         27.4410    -0.3640    21.4330 os         1 FA9      -0.584400
     46 CA5         28.2210    -1.3450    22.0870 c3         1 FA9       0.215600
     47 CA4         28.8110    -0.7440    23.3560 c5         1 FA9       0.106300
     48 OA4         29.4990    -1.7740    24.0730 os         1 FA9      -0.464000
     49 CA3         29.8450     0.3600    23.1130 c5         1 FA9       0.147300
     50 OA3         29.9700     1.2140    24.2220 oh         1 FA9      -0.723000
     51 CA2         31.1200    -0.4610    23.0100 c5         1 FA9       0.133300
     52 OA2         32.2710     0.2990    23.1970 oh         1 FA9      -0.682000
     53 CA1         30.8750    -1.5120    24.1020 c5         1 FA9       0.265300
     54 N9A         31.6040    -2.7410    23.9060 na         1 FA9      -0.279300
     55 C8A         31.4520    -3.6450    22.8880 cc         1 FA9       0.441700
     56 N7A         32.2490    -4.6670    22.9820 nd         1 FA9      -0.579100
     57 C5C         32.9740    -4.4310    24.1220 ca         1 FA9      -0.092600
     58 C4C         32.5860    -3.2400    24.7140 ca         1 FA9       0.119500
     59 N3A         33.0830    -2.7120    25.8300 nb         1 FA9      -0.202000
     60 C2A         34.0310    -3.4720    26.3500 ca         1 FA9       0.158900
     61 N1A         34.5050    -4.6300    25.8970 nb         1 FA9      -0.321000
     62 C6A         33.9950    -5.1470    24.7740 ca         1 FA9       0.439900
     63 N6A         34.4720    -6.3060    24.3140 nv         1 FA9      -1.078900
     64 H1          25.2270     6.6530    14.1230 hn         1 FA9       0.345500
     65 H2          23.3510     3.4980    12.4400 hn         1 FA9       0.339500
     66 H3          24.7970     3.4540    10.6460 h2         1 FA9       0.050700
     67 H4          23.9830     5.2230     9.6730 hc         1 FA9       0.062700
     68 H5          21.9950     5.5250    10.7510 ha         1 FA9       0.117500
     69 H6          20.3450     6.9900    11.8360 ha         1 FA9       0.112500
     70 H7          20.9650     9.3040    12.4720 ha         1 FA9       0.110000
     71 H8          23.2480    10.1310    11.9890 ha         1 FA9       0.112500
     72 H9          24.8870     8.6840    10.9080 ha         1 FA9       0.117500
     73 H10         25.6050     7.7250     9.1390 hc         1 FA9       0.079200
     74 H11         24.9130     6.5760     8.0090 hc         1 FA9       0.079200
     75 H12         29.3750     5.5370     9.5840 ha         1 FA9       0.126000
     76 H13         32.2890     4.6250    11.1850 hc         1 FA9       0.032033
     77 H14         32.1030     3.4270     9.9200 hc         1 FA9       0.032033
     78 H15         31.6640     5.1040     9.6100 hc         1 FA9       0.032033
     79 H16         31.8400     2.8990    12.8660 hc         1 FA9       0.042700
     80 H17         30.7290     1.5560    13.1290 hc         1 FA9       0.042700
     81 H18         31.6280     1.6870    11.6200 hc         1 FA9       0.042700
     82 H19         28.5100     2.1300    13.0000 ha         1 FA9       0.150000
     83 H20         25.0210     1.6690    12.1960 h1         1 FA9       0.040200
     84 H21         26.7080     1.2900    12.3800 h1         1 FA9       0.040200
     85 H22         24.7910     2.4420    14.4470 h1         1 FA9       0.036700
     86 H23         26.8610     2.3880    15.7110 ho         1 FA9       0.573000
     87 H24         26.6750     0.0540    14.4210 h1         1 FA9       0.039700
     88 H25         24.9320    -0.9860    13.6960 ho         1 FA9       0.441000
     89 H26         24.4710     0.7640    16.4060 h1         1 FA9       0.041700
     90 H27         26.4200     1.0520    17.8390 ho         1 FA9       0.625000
     91 H28         24.8740    -1.6840    15.9570 h1         1 FA9       0.014700
     92 H29         26.5560    -1.4550    16.4330 h1         1 FA9       0.014700
     93 H32         27.5860    -2.1960    22.3510 h1         1 FA9       0.041200
     94 H33         29.0240    -1.7280    21.4490 h1         1 FA9       0.041200
     95 H34         27.9930    -0.3710    23.9830 h1         1 FA9       0.079700
     96 H35         29.6410     0.9140    22.1900 h1         1 FA9       0.117700
     97 H36         29.1500     1.7100    24.3160 ho         1 FA9       0.504000
     98 H37         31.1190    -0.9570    22.0290 h1         1 FA9       0.078700
     99 H38         33.0300    -0.2190    22.9110 ho         1 FA9       0.497000
    100 H39         31.1930    -1.1220    25.0750 h2         1 FA9       0.102700
    101 H40         30.7260    -3.4960    22.1030 h5         1 FA9       0.096800
    102 H41         34.4870    -3.1080    27.2650 h5         1 FA9       0.032100
    103 H42         35.1770    -6.8020    24.8310 hn         1 FA9       0.499000
    104 H43         34.0830    -6.7410    23.4960 hn         1 FA9       0.499000
@<TRIPOS>BOND
     1     1     3 2   
     2     2     5 2   
     3     3     4 1   
     4     3     8 1   
     5     4     5 1   
     6     4    64 1   
     7     5     6 1   
     8     6     7 1   
     9     6    65 1   
    10     7     8 1   
    11     7    28 1   
    12     7    66 1   
    13     8     9 1   
    14     8    19 1   
    15     9    10 1   
    16     9    16 1   
    17     9    67 1   
    18    10    11 ar  
    19    10    15 ar  
    20    11    12 ar  
    21    11    68 1   
    22    12    13 ar  
    23    12    69 1   
    24    13    14 ar  
    25    13    70 1   
    26    14    15 ar  
    27    14    71 1   
    28    15    72 1   
    29    16    17 1   
    30    16    73 1   
    31    16    74 1   
    32    17    18 2   
    33    17    19 1   
    34    19    20 1   
    35    20    21 ar  
    36    20    27 ar  
    37    21    22 ar  
    38    21    75 1   
    39    22    23 1   
    40    22    24 ar  
    41    23    76 1   
    42    23    77 1   
    43    23    78 1   
    44    24    25 1   
    45    24    26 ar  
    46    25    79 1   
    47    25    80 1   
    48    25    81 1   
    49    26    27 ar  
    50    26    82 1   
    51    27    28 1   
    52    28    29 1   
    53    29    30 1   
    54    29    83 1   
    55    29    84 1   
    56    30    31 1   
    57    30    32 1   
    58    30    85 1   
    59    31    86 1   
    60    32    33 1   
    61    32    34 1   
    62    32    87 1   
    63    33    88 1   
    64    34    35 1   
    65    34    36 1   
    66    34    89 1   
    67    35    90 1   
    68    36    37 1   
    69    36    91 1   
    70    36    92 1   
    71    37    38 1   
    72    38    39 1   
    73    38    40 1   
    74    38    41 1   
    75    41    42 1   
    76    42    43 1   
    77    42    44 1   
    78    42    45 1   
    79    45    46 1   
    80    46    47 1   
    81    46    93 1   
    82    46    94 1   
    83    47    48 1   
    84    47    49 1   
    85    47    95 1   
    86    48    53 1   
    87    49    50 1   
    88    49    51 1   
    89    49    96 1   
    90    50    97 1   
    91    51    52 1   
    92    51    53 1   
    93    51    98 1   
    94    52    99 1   
    95    53    54 1   
    96    53   100 1   
    97    54    55 1   
    98    54    58 1   
    99    55    56 2   
   100    55   101 1   
   101    56    57 1   
   102    57    58 ar  
   103    57    62 ar  
   104    58    59 ar  
   105    59    60 ar  
   106    60    61 ar  
   107    60   102 1   
   108    61    62 ar  
   109    62    63 1   
   110    63   103 1   
   111    63   104 1   
@<TRIPOS>SUBSTRUCTURE
     1 FA9         1 TEMP              0 ****  ****    0 ROOT
