@<TRIPOS>MOLECULE
FA9
  104   111     1     0     0
SMALL
No Charge or Current Charge


@<TRIPOS>ATOM
      1 O4          25.8610     7.7410    11.7120 o          1 FA9      -0.516000
      2 O2          23.1530     5.1030    14.1440 o          1 FA9      -0.550000
      3 C4          25.3230     6.6460    11.7990 c          1 FA9       0.591000
      4 N3          24.5140     6.3550    12.8610 ns         1 FA9      -0.458500
      5 C2          23.9390     5.1830    13.2210 c          1 FA9       0.640000
      6 N1          24.3110     4.1010    12.4940 ns         1 FA9      -0.522900
      7 C10         25.3490     4.0820    11.4880 c6         1 FA9       0.412900
      8 C4A         25.4580     5.4610    10.7890 c5         1 FA9       0.019400
      9 C3B         24.4270     5.6140     9.5910 c5         1 FA9      -0.003400
     10 CB1         23.0610     6.1530    10.0630 ca         1 FA9      -0.087300
     11 CB2         22.0470     5.2130    10.3490 ca         1 FA9      -0.095000
     12 CB3         20.7810     5.6220    10.7990 ca         1 FA9      -0.108000
     13 CB4         20.5030     6.9860    10.9690 ca         1 FA9      -0.102000
     14 CB5         21.4940     7.9370    10.6860 ca         1 FA9      -0.108000
     15 CB6         22.7610     7.5280    10.2360 ca         1 FA9      -0.095000
     16 C2B         25.1750     6.5860     8.6400 c5         1 FA9      -0.169400
     17 C1B         26.5790     6.0010     8.6960 c          1 FA9       0.581000
     18 O1B         27.3360     5.7500     7.7670 o          1 FA9      -0.540000
     19 N5          26.7290     5.5630    10.0280 n          1 FA9      -0.200400
     20 C5A         27.9450     5.0970    10.6400 ca         1 FA9      -0.111000
     21 C6          29.1990     5.4970    10.1300 ca         1 FA9      -0.079000
     22 C7          30.3970     5.0000    10.6690 ca         1 FA9      -0.112300
     23 C7M         31.7310     5.4870    10.1070 c3         1 FA9      -0.031800
     24 C8          30.3430     4.0670    11.7230 ca         1 FA9      -0.049300
     25 C8M         31.6190     3.5100    12.3510 c3         1 FA9      -0.046800
     26 C9          29.0930     3.6320    12.1990 ca         1 FA9      -0.125000
     27 C9A         27.8770     4.1080    11.6570 ca         1 FA9       0.310000
     28 N10         26.6100     3.6190    12.1290 nh         1 FA9      -0.824400
     29 C1          26.5110     2.3440    12.9170 c3         1 FA9       0.215800
     30 C12         26.3550     2.4880    14.4740 c3         1 FA9       0.178300
     31 O7          27.5420     3.0360    15.0780 oh         1 FA9      -0.749000
     32 C3          26.0170     1.1270    15.1750 c3         1 FA9       0.119300
     33 O3          24.7920     0.5950    14.6260 oh         1 FA9      -0.683000
     34 C11         25.9030     1.2520    16.7380 c3         1 FA9       0.168300
     35 O6          27.1320     1.8040    17.2860 oh         1 FA9      -0.835000
     36 C5          25.5490    -0.1030    17.4240 c3         1 FA9       0.206600
     37 O5          25.3760     0.1420    18.8210 os         1 FA9      -0.595400
     38 P           25.5510    -1.0530    19.8840 p5         1 FA9       1.461800
     39 O1P         25.0570    -0.6650    21.2360 o          1 FA9      -0.842500
     40 O2P         24.8350    -2.2730    19.4060 o          1 FA9      -0.842500
     41 O3P         27.1100    -1.2950    19.8320 os         1 FA9      -0.724800
     42 PA          28.0720    -0.1270    20.2700 p5         1 FA9       1.476800
     43 O1A         29.4770    -0.4760    19.9230 o          1 FA9      -0.839000
     44 O2A         27.7110     1.1920    19.6750 o          1 FA9      -0.839000
     45 OA5         27.8720    -0.1550    21.8660 os         1 FA9      -0.584400
     46 CA5         28.4590    -1.2010    22.6530 c3         1 FA9       0.215600
     47 CA4         29.5220    -0.5940    23.6170 c5         1 FA9       0.106300
     48 OA4         30.1330    -1.6710    24.3820 os         1 FA9      -0.464000
     49 CA3         30.7320     0.1550    22.9530 c5         1 FA9       0.147300
     50 OA3         31.3940     1.0340    23.8960 oh         1 FA9      -0.723000
     51 CA2         31.5970    -1.0890    22.5590 c5         1 FA9       0.133300
     52 OA2         32.9520    -0.7670    22.1730 oh         1 FA9      -0.682000
     53 CA1         31.4760    -1.9060    23.8900 c5         1 FA9       0.265300
     54 N9A         31.7230    -3.3470    23.8360 na         1 FA9      -0.279300
     55 C8A         31.3920    -4.2040    22.7790 cc         1 FA9       0.441700
     56 N7A         31.7930    -5.4670    23.0250 nd         1 FA9      -0.579100
     57 C5C         32.3920    -5.3740    24.2850 ca         1 FA9      -0.092600
     58 C4C         32.3530    -4.0980    24.7880 ca         1 FA9       0.119500
     59 N3A         32.8700    -3.7830    25.9930 nb         1 FA9      -0.202000
     60 C2A         33.4280    -4.8100    26.6780 ca         1 FA9       0.158900
     61 N1A         33.5170    -6.1010    26.2750 nb         1 FA9      -0.321000
     62 C6A         32.9970    -6.3790    25.0690 ca         1 FA9       0.439900
     63 N6A         33.0840    -7.6750    24.6670 nv         1 FA9      -1.078900
     64 H1          24.3180     7.1280    13.4760 hn         1 FA9       0.345500
     65 H2          23.8830     3.2240    12.7540 hn         1 FA9       0.339500
     66 H3          25.0790     3.3250    10.7360 h2         1 FA9       0.050700
     67 H4          24.3010     4.6530     9.0750 hc         1 FA9       0.062700
     68 H5          22.2420     4.1500    10.2260 ha         1 FA9       0.117500
     69 H6          20.0160     4.8810    11.0170 ha         1 FA9       0.112500
     70 H7          19.5240     7.3040    11.3190 ha         1 FA9       0.110000
     71 H8          21.2820     8.9950    10.8180 ha         1 FA9       0.112500
     72 H9          23.4990     8.3000    10.0410 ha         1 FA9       0.117500
     73 H10         25.2420     7.5900     9.0650 hc         1 FA9       0.079200
     74 H11         24.7930     6.6320     7.6150 hc         1 FA9       0.079200
     75 H12         29.2520     6.2310     9.3300 ha         1 FA9       0.126000
     76 H13         32.3210     5.9960    10.8780 hc         1 FA9       0.032033
     77 H14         32.3260     4.6500     9.7220 hc         1 FA9       0.032033
     78 H15         31.5920     6.1950     9.2810 hc         1 FA9       0.032033
     79 H16         32.2380     4.3130    12.7650 hc         1 FA9       0.042700
     80 H17         31.4020     2.8120    13.1680 hc         1 FA9       0.042700
     81 H18         32.2190     2.9680    11.6100 hc         1 FA9       0.042700
     82 H19         29.0820     2.9130    13.0070 ha         1 FA9       0.150000
     83 H20         25.6490     1.7790    12.5400 h1         1 FA9       0.040200
     84 H21         27.3670     1.6910    12.7040 h1         1 FA9       0.040200
     85 H22         25.5140     3.1640    14.6710 h1         1 FA9       0.036700
     86 H23         27.5160     2.6420    16.0110 ho         1 FA9       0.573000
     87 H24         26.8390     0.4310    14.9550 h1         1 FA9       0.039700
     88 H25         24.8560    -0.3860    14.6450 ho         1 FA9       0.441000
     89 H26         25.0750     1.9440    16.9490 h1         1 FA9       0.041700
     90 H27         27.2050     1.5230    18.2730 ho         1 FA9       0.625000
     91 H28         24.6210    -0.5070    17.0000 h1         1 FA9       0.014700
     92 H29         26.3550    -0.8270    17.2410 h1         1 FA9       0.014700
     93 H32         27.6830    -1.6910    23.2560 h1         1 FA9       0.041200
     94 H33         28.9180    -1.9760    22.0250 h1         1 FA9       0.041200
     95 H34         28.9870     0.0680    24.3110 h1         1 FA9       0.079700
     96 H35         30.4200     0.7130    22.0580 h1         1 FA9       0.117700
     97 H36         30.8260     1.8320    24.0020 ho         1 FA9       0.504000
     98 H37         31.1060    -1.6260    21.7360 h1         1 FA9       0.078700
     99 H38         33.4160    -1.6130    21.9760 ho         1 FA9       0.497000
    100 H39         32.1910    -1.4980    24.6170 h2         1 FA9       0.102700
    101 H40         30.8720    -3.8630    21.8900 h5         1 FA9       0.096800
    102 H41         33.8490    -4.5730    27.6540 h5         1 FA9       0.032100
    103 H42         33.2530    -8.3830    25.3770 hn         1 FA9       0.499000
    104 H43         32.5120    -7.9500    23.8720 hn         1 FA9       0.499000
@<TRIPOS>BOND
     1     1     3 2   
     2     2     5 2   
     3     3     4 1   
     4     3     8 1   
     5     4     5 1   
     6     4    64 1   
     7     5     6 1   
     8     6     7 1   
     9     6    65 1   
    10     7     8 1   
    11     7    28 1   
    12     7    66 1   
    13     8     9 1   
    14     8    19 1   
    15     9    10 1   
    16     9    16 1   
    17     9    67 1   
    18    10    11 ar  
    19    10    15 ar  
    20    11    12 ar  
    21    11    68 1   
    22    12    13 ar  
    23    12    69 1   
    24    13    14 ar  
    25    13    70 1   
    26    14    15 ar  
    27    14    71 1   
    28    15    72 1   
    29    16    17 1   
    30    16    73 1   
    31    16    74 1   
    32    17    18 2   
    33    17    19 1   
    34    19    20 1   
    35    20    21 ar  
    36    20    27 ar  
    37    21    22 ar  
    38    21    75 1   
    39    22    23 1   
    40    22    24 ar  
    41    23    76 1   
    42    23    77 1   
    43    23    78 1   
    44    24    25 1   
    45    24    26 ar  
    46    25    79 1   
    47    25    80 1   
    48    25    81 1   
    49    26    27 ar  
    50    26    82 1   
    51    27    28 1   
    52    28    29 1   
    53    29    30 1   
    54    29    83 1   
    55    29    84 1   
    56    30    31 1   
    57    30    32 1   
    58    30    85 1   
    59    31    86 1   
    60    32    33 1   
    61    32    34 1   
    62    32    87 1   
    63    33    88 1   
    64    34    35 1   
    65    34    36 1   
    66    34    89 1   
    67    35    90 1   
    68    36    37 1   
    69    36    91 1   
    70    36    92 1   
    71    37    38 1   
    72    38    39 1   
    73    38    40 1   
    74    38    41 1   
    75    41    42 1   
    76    42    43 1   
    77    42    44 1   
    78    42    45 1   
    79    45    46 1   
    80    46    47 1   
    81    46    93 1   
    82    46    94 1   
    83    47    48 1   
    84    47    49 1   
    85    47    95 1   
    86    48    53 1   
    87    49    50 1   
    88    49    51 1   
    89    49    96 1   
    90    50    97 1   
    91    51    52 1   
    92    51    53 1   
    93    51    98 1   
    94    52    99 1   
    95    53    54 1   
    96    53   100 1   
    97    54    55 1   
    98    54    58 1   
    99    55    56 2   
   100    55   101 1   
   101    56    57 1   
   102    57    58 ar  
   103    57    62 ar  
   104    58    59 ar  
   105    59    60 ar  
   106    60    61 ar  
   107    60   102 1   
   108    61    62 ar  
   109    62    63 1   
   110    63   103 1   
   111    63   104 1   
@<TRIPOS>SUBSTRUCTURE
     1 FA9         1 TEMP              0 ****  ****    0 ROOT
