@<TRIPOS>MOLECULE
FAA
   99   105     1     0     0
SMALL
abcg2


@<TRIPOS>ATOM
      1 PA          -5.5420    -3.3460    -0.6800 p5         1 FAA       1.456800
      2 O1A         -5.7420    -4.8140    -0.8830 o          1 FAA      -0.840500
      3 O2A         -5.8740    -2.3820    -1.7810 o          1 FAA      -0.840500
      4 O5B         -6.2910    -2.8670     0.7040 os         1 FAA      -0.565400
      5 C5B         -7.6870    -2.6910     0.6720 c3         1 FAA       0.214600
      6 C4B         -8.0710    -1.6090     1.6640 c5         1 FAA       0.157300
      7 O4B         -7.3430    -0.4040     1.4090 os         1 FAA      -0.414000
      8 C3B         -9.5420    -1.2360     1.5510 c5         1 FAA       0.099300
      9 O3B         -9.9840    -0.7330     2.7840 oh         1 FAA      -0.713000
     10 C2B         -9.4770    -0.1270     0.4970 c5         1 FAA       0.069300
     11 O2B        -10.5460     0.7710     0.5170 oh         1 FAA      -0.705000
     12 C1B         -8.1870     0.5870     0.9010 c5         1 FAA       0.322300
     13 N9A         -7.5250     1.2620    -0.1890 na         1 FAA      -0.292300
     14 C8A         -6.8150     0.6950    -1.2150 cc         1 FAA       0.461700
     15 N7A         -6.3560     1.5730    -2.0610 nd         1 FAA      -0.571100
     16 C5A         -6.7820     2.7800    -1.5730 ca         1 FAA      -0.081600
     17 C6A         -6.6160     4.1040    -2.0170 ca         1 FAA       0.430900
     18 N6A         -5.9270     4.4150    -3.1180 nv         1 FAA      -1.076900
     19 N1A         -7.1600     5.0840    -1.2860 nb         1 FAA      -0.323000
     20 C2A         -7.8280     4.7710    -0.1790 ca         1 FAA       0.147900
     21 N3A         -8.0550     3.5740     0.3340 nb         1 FAA      -0.208000
     22 C4A         -7.5090     2.6100    -0.4050 ca         1 FAA       0.108500
     23 N1           4.4630     0.3180    -2.3970 nc         1 FAA      -0.408400
     24 C2           4.3740     1.3000    -3.3280 cd         1 FAA       0.388000
     25 O2           3.6130     1.2550    -4.2670 o          1 FAA      -0.235000
     26 N3           5.1880     2.4210    -3.1600 ns         1 FAA      -0.478500
     27 C4           6.0880     2.6390    -2.1750 c          1 FAA       0.581600
     28 O4           6.6400     3.7040    -2.0150 o          1 FAA      -0.505000
     29 C4X          6.2890     1.4480    -1.2880 cd         1 FAA      -0.193600
     30 N5           7.2470     1.3740    -0.3890 na         1 FAA       0.216000
     31 C5X          7.2750     0.3600     0.5370 ca         1 FAA      -0.165000
     32 C6           8.2500     0.3190     1.5510 ca         1 FAA      -0.081000
     33 C7           8.2610    -0.6730     2.4910 ca         1 FAA      -0.066300
     34 C7M          9.3000    -0.6910     3.5650 c3         1 FAA      -0.054800
     35 C8           7.2650    -1.6880     2.4360 ca         1 FAA       0.014700
     36 C8M          7.2580    -2.7780     3.4540 c3         1 FAA      -0.068800
     37 C9           6.3140    -1.6600     1.4470 ca         1 FAA      -0.147000
     38 C9A          6.2900    -0.6530     0.4730 ca         1 FAA       0.065000
     39 N10          5.3880    -0.6440    -0.5480 na         1 FAA       0.019000
     40 C10          5.3390     0.3770    -1.4450 cc         1 FAA       0.256400
     41 C1           4.4080    -1.7200    -0.7240 c3         1 FAA       0.020600
     42 C11          3.0520    -1.3080    -0.1240 c3         1 FAA       0.121300
     43 O6           3.2080    -0.8340     1.1880 oh         1 FAA      -0.708000
     44 C3           2.0630    -2.4880    -0.2130 c3         1 FAA       0.102300
     45 O3           2.2850    -3.2810    -1.3550 oh         1 FAA      -0.656000
     46 C12          0.5890    -2.0390    -0.1620 c3         1 FAA       0.132300
     47 O7           0.3470    -0.9950     0.7430 oh         1 FAA      -0.681000
     48 C5          -0.3060    -3.2420     0.1010 c3         1 FAA       0.202600
     49 O5          -1.6560    -2.8470    -0.0030 os         1 FAA      -0.553400
     50 P           -2.7430    -4.0180    -0.4020 p5         1 FAA       1.462800
     51 O1P         -2.6350    -4.3240    -1.8630 o          1 FAA      -0.774000
     52 O2P         -2.6840    -5.1150     0.6130 o          1 FAA      -0.774000
     53 O3P         -4.0350    -3.0400    -0.1200 os         1 FAA      -0.678800
     54 C1P          8.2660     3.3420     0.7590 ca         1 FAA      -0.173300
     55 C2P          9.4390     3.7890     1.3590 ca         1 FAA      -0.045500
     56 C3P          9.4130     4.7380     2.3660 ca         1 FAA      -0.170000
     57 C4P          8.1940     5.2530     2.8020 ca         1 FAA       0.169100
     58 O4P          8.2140     6.1680     3.7860 oh         1 FAA      -0.523100
     59 C5P          7.0140     4.8020     2.2160 ca         1 FAA      -0.170000
     60 C6P          7.0550     3.8610     1.1990 ca         1 FAA      -0.045500
     61 H51A        -8.0340    -2.4220    -0.3330 h1         1 FAA       0.016200
     62 H52A        -8.2050    -3.6150     0.9530 h1         1 FAA       0.016200
     63 H4B         -7.8270    -1.9430     2.6770 h1         1 FAA       0.095700
     64 H3B        -10.1540    -2.0850     1.2150 h1         1 FAA       0.051700
     65 HO3A       -10.7620    -0.1870     2.6190 ho         1 FAA       0.505000
     66 H2B         -9.3500    -0.5810    -0.4940 h1         1 FAA       0.072700
     67 HO2A       -11.2710     0.4010     0.0040 ho         1 FAA       0.501000
     68 H1B         -8.4020     1.3580     1.6490 h2         1 FAA       0.097700
     69 H8A         -6.6400    -0.3720    -1.2830 h5         1 FAA       0.152800
     70 H61A        -5.5940     3.6950    -3.7360 hn         1 FAA       0.496000
     71 H62A        -5.9050     5.3650    -3.4450 hn         1 FAA       0.496000
     72 H2A         -8.2380     5.6110     0.3710 h5         1 FAA       0.026100
     73 HN3          5.0320     3.1940    -3.7980 hn         1 FAA       0.358500
     74 H6           9.0020     1.0860     1.6260 ha         1 FAA       0.141000
     75 HM71         8.8430    -0.6680     4.5560 hc         1 FAA       0.057033
     76 HM72         9.9020    -1.5990     3.5120 hc         1 FAA       0.057033
     77 HM73         9.9690     0.1620     3.4820 hc         1 FAA       0.057033
     78 HM81         7.2070    -2.3680     4.4640 hc         1 FAA       0.065367
     79 HM82         6.4160    -3.4510     3.3150 hc         1 FAA       0.065367
     80 HM83         8.1760    -3.3650     3.3970 hc         1 FAA       0.065367
     81 H9           5.5830    -2.4510     1.4370 ha         1 FAA       0.151000
     82 H1'1         4.3250    -1.8980    -1.7920 h1         1 FAA       0.095200
     83 H1'2         4.8000    -2.6300    -0.2780 h1         1 FAA       0.095200
     84 H2           2.6710    -0.4650    -0.7070 h1         1 FAA       0.114700
     85 HO2          3.3210    -1.5750     1.7920 ho         1 FAA       0.497000
     86 H3           2.2680    -3.1530     0.6380 h1         1 FAA       0.059700
     87 HO3          1.9720    -2.8090    -2.1350 ho         1 FAA       0.463000
     88 H4           0.3390    -1.6280    -1.1490 h1         1 FAA       0.091700
     89 HO4          0.5480    -1.2930     1.6360 ho         1 FAA       0.490000
     90 H5'1        -0.0550    -4.0330    -0.6140 h1         1 FAA       0.019200
     91 H5'2        -0.0950    -3.6360     1.1040 h1         1 FAA       0.019200
     92 H7P1         9.2780     1.7440    -0.2750 h1         1 FAA       0.098200
     93 H7P2         8.4260     2.8280    -1.3290 h1         1 FAA       0.098200
     94 H2P         10.3950     3.3910     1.0390 ha         1 FAA       0.117500
     95 H3P         10.3360     5.0740     2.8210 ha         1 FAA       0.135000
     96 HOP4         7.3200     6.4570     3.9990 ho         1 FAA       0.478000
     97 H5P          6.0560     5.1850     2.5480 ha         1 FAA       0.135000
     98 H6P          6.1140     3.5360     0.7740 ha         1 FAA       0.117500
     99 C7P          8.3760     2.3470    -0.3620 c3         1 FAA       0.094900
@<TRIPOS>BOND
     1     1     2 1   
     2     1     3 1   
     3     1     4 1   
     4     1    53 1   
     5     4     5 1   
     6     5     6 1   
     7     5    61 1   
     8     5    62 1   
     9     6     7 1   
    10     6     8 1   
    11     6    63 1   
    12     7    12 1   
    13     8     9 1   
    14     8    10 1   
    15     8    64 1   
    16     9    65 1   
    17    10    11 1   
    18    10    12 1   
    19    10    66 1   
    20    11    67 1   
    21    12    13 1   
    22    12    68 1   
    23    13    14 1   
    24    13    22 1   
    25    14    15 2   
    26    14    69 1   
    27    15    16 1   
    28    16    17 ar  
    29    16    22 ar  
    30    17    18 1   
    31    17    19 ar  
    32    18    70 1   
    33    18    71 1   
    34    19    20 ar  
    35    20    21 ar  
    36    20    72 1   
    37    21    22 ar  
    38    23    24 2   
    39    23    40 1   
    40    24    25 1   
    41    24    26 1   
    42    26    27 1   
    43    26    73 1   
    44    27    28 2   
    45    27    29 1   
    46    29    30 1   
    47    29    40 2   
    48    30    31 1   
    49    30    99 1   
    50    31    32 ar  
    51    31    38 ar  
    52    32    33 ar  
    53    32    74 1   
    54    33    34 1   
    55    33    35 ar  
    56    34    75 1   
    57    34    76 1   
    58    34    77 1   
    59    35    36 1   
    60    35    37 ar  
    61    36    78 1   
    62    36    79 1   
    63    36    80 1   
    64    37    38 ar  
    65    37    81 1   
    66    38    39 1   
    67    39    40 1   
    68    39    41 1   
    69    41    42 1   
    70    41    82 1   
    71    41    83 1   
    72    42    43 1   
    73    42    44 1   
    74    42    84 1   
    75    43    85 1   
    76    44    45 1   
    77    44    46 1   
    78    44    86 1   
    79    45    87 1   
    80    46    47 1   
    81    46    48 1   
    82    46    88 1   
    83    47    89 1   
    84    48    49 1   
    85    48    90 1   
    86    48    91 1   
    87    49    50 1   
    88    50    51 1   
    89    50    52 1   
    90    50    53 1   
    91    54    55 ar  
    92    54    60 ar  
    93    54    99 1   
    94    55    56 ar  
    95    55    94 1   
    96    56    57 ar  
    97    56    95 1   
    98    57    58 1   
    99    57    59 ar  
   100    58    96 1   
   101    59    60 ar  
   102    59    97 1   
   103    60    98 1   
   104    92    99 1   
   105    93    99 1   
@<TRIPOS>SUBSTRUCTURE
     1 FAA         1 TEMP              0 ****  ****    0 ROOT
