@<TRIPOS>MOLECULE
FAA
   99   105     1     0     0
SMALL
No Charge or Current Charge


@<TRIPOS>ATOM
      1 PA          -4.9540    -3.4240    -2.3800 p5         1 FAA       1.456800
      2 O1A         -4.5810    -4.3360    -3.5010 o          1 FAA      -0.840500
      3 O2A         -4.8310    -1.9870    -2.7620 o          1 FAA      -0.840500
      4 O5B         -6.4700    -3.7650    -1.9380 os         1 FAA      -0.565400
      5 C5B         -7.3230    -2.8380    -1.2400 c3         1 FAA       0.214600
      6 C4B         -6.7940    -2.4910     0.1940 c5         1 FAA       0.157300
      7 O4B         -5.8740    -1.3610     0.1500 os         1 FAA      -0.414000
      8 C3B         -7.9350    -2.0060     1.1510 c5         1 FAA       0.099300
      9 O3B         -7.5700    -2.0430     2.5390 oh         1 FAA      -0.713000
     10 C2B         -8.0850    -0.5360     0.6600 c5         1 FAA       0.069300
     11 O2B         -8.8120     0.2680     1.6130 oh         1 FAA      -0.705000
     12 C1B         -6.5720    -0.1480     0.5130 c5         1 FAA       0.322300
     13 N9A         -6.2250     0.9220    -0.4230 na         1 FAA      -0.292300
     14 C8A         -6.5900     0.9770    -1.7740 cc         1 FAA       0.461700
     15 N7A         -6.2360     2.1540    -2.3310 nd         1 FAA      -0.571100
     16 C5A         -5.6230     2.8380    -1.2770 ca         1 FAA      -0.081600
     17 C6A         -5.0560     4.1300    -1.2560 ca         1 FAA       0.430900
     18 N6A         -5.0330     4.9420    -2.3460 nv         1 FAA      -1.076900
     19 N1A         -4.5180     4.6330    -0.1340 nb         1 FAA      -0.323000
     20 C2A         -4.5510     3.8270     0.9560 ca         1 FAA       0.147900
     21 N3A         -5.0730     2.5780     1.0250 nb         1 FAA      -0.208000
     22 C4A         -5.6070     2.1030    -0.1180 ca         1 FAA       0.108500
     23 N1           2.9450     1.1200    -1.5060 nc         1 FAA      -0.408400
     24 C2           2.9460     2.1510    -2.3350 cd         1 FAA       0.388000
     25 O2           1.9630     2.4250    -2.9970 o          1 FAA      -0.235000
     26 N3           4.0440     2.9350    -2.4880 ns         1 FAA      -0.478500
     27 C4           5.2310     2.7780    -1.8580 c          1 FAA       0.581600
     28 O4           6.1600     3.5260    -2.1040 o          1 FAA      -0.505000
     29 C4X          5.2520     1.6570    -0.8970 cd         1 FAA      -0.193600
     30 N5           6.4250     1.2620    -0.2030 na         1 FAA       0.216000
     31 C5X          6.1790     0.6050     1.0140 ca         1 FAA      -0.165000
     32 C6           7.0880     0.7070     2.0960 ca         1 FAA      -0.081000
     33 C7           6.8620     0.0320     3.3080 ca         1 FAA      -0.066300
     34 C7M          7.8790     0.1660     4.4400 c3         1 FAA      -0.054800
     35 C8           5.7020    -0.7550     3.4550 ca         1 FAA       0.014700
     36 C8M          5.4080    -1.4940     4.7570 c3         1 FAA      -0.068800
     37 C9           4.7980    -0.8520     2.3820 ca         1 FAA      -0.147000
     38 C9A          5.0320    -0.1800     1.1580 ca         1 FAA       0.065000
     39 N10          4.1320    -0.2350     0.0920 na         1 FAA       0.019000
     40 C10          4.0860     0.8760    -0.7650 cc         1 FAA       0.256400
     41 C1           3.2650    -1.4340    -0.0840 c3         1 FAA       0.020600
     42 C11          1.7610    -1.2730     0.3090 c3         1 FAA       0.121300
     43 O6           1.6560    -0.6430     1.6050 oh         1 FAA      -0.708000
     44 C3           1.0280    -2.6610     0.3050 c3         1 FAA       0.102300
     45 O3           1.0730    -3.2050    -1.0310 oh         1 FAA      -0.656000
     46 C12         -0.4540    -2.6500     0.8200 c3         1 FAA       0.132300
     47 O7          -0.5070    -2.0510     2.1280 oh         1 FAA      -0.681000
     48 C5          -1.0700    -4.0890     0.8890 c3         1 FAA       0.202600
     49 O5          -2.4330    -4.0790     0.4400 os         1 FAA      -0.553400
     50 P           -2.7590    -4.1870    -1.1360 p5         1 FAA       1.462800
     51 O1P         -1.9200    -3.2080    -1.8910 o          1 FAA      -0.774000
     52 O2P         -2.5730    -5.6010    -1.5760 o          1 FAA      -0.774000
     53 O3P         -4.2730    -3.7760    -1.0050 os         1 FAA      -0.678800
     54 C1P          8.4240     2.8850    -0.0780 ca         1 FAA      -0.173300
     55 C2P          9.7650     3.1840    -0.3880 ca         1 FAA      -0.045500
     56 C3P         10.3560     4.3720     0.0760 ca         1 FAA      -0.170000
     57 C4P          9.6140     5.2710     0.8540 ca         1 FAA       0.169100
     58 O4P         10.1970     6.4210     1.2960 oh         1 FAA      -0.523100
     59 C5P          8.2780     4.9830     1.1720 ca         1 FAA      -0.170000
     60 C6P          7.6820     3.7970     0.7090 ca         1 FAA      -0.045500
     61 H51A        -7.4570    -1.9220    -1.8250 h1         1 FAA       0.016200
     62 H52A        -8.3160    -3.2940    -1.1340 h1         1 FAA       0.016200
     63 H4B         -6.2850    -3.3720     0.6060 h1         1 FAA       0.095700
     64 H3B         -8.8610    -2.5760     0.9930 h1         1 FAA       0.051700
     65 HO3A        -7.9910    -1.2350     2.9240 ho         1 FAA       0.505000
     66 H2B         -8.5820    -0.5050    -0.3200 h1         1 FAA       0.072700
     67 HO2A        -9.7640     0.2590     1.3520 ho         1 FAA       0.501000
     68 H1B         -6.2000     0.1790     1.4930 h2         1 FAA       0.097700
     69 H8A         -7.0960     0.1620    -2.2780 h5         1 FAA       0.152800
     70 H61A        -5.6200     4.6680    -3.1310 hn         1 FAA       0.496000
     71 H62A        -4.9030     5.9400    -2.2000 hn         1 FAA       0.496000
     72 H2A         -4.1160     4.2250     1.8710 h5         1 FAA       0.026100
     73 HN3          4.0060     3.7050    -3.1400 hn         1 FAA       0.358500
     74 H6           7.9870     1.3120     2.0140 ha         1 FAA       0.141000
     75 HM71         7.4270     0.6290     5.3250 hc         1 FAA       0.057033
     76 HM72         8.2730    -0.8140     4.7350 hc         1 FAA       0.057033
     77 HM73         8.7360     0.7850     4.1500 hc         1 FAA       0.057033
     78 HM81         5.3470    -0.7970     5.6010 hc         1 FAA       0.065367
     79 HM82         4.4560    -2.0360     4.7150 hc         1 FAA       0.065367
     80 HM83         6.1920    -2.2270     4.9800 hc         1 FAA       0.065367
     81 H9           3.9050    -1.4530     2.5220 ha         1 FAA       0.151000
     82 H1'1         3.3100    -1.7170    -1.1430 h1         1 FAA       0.095200
     83 H1'2         3.6980    -2.2790     0.4650 h1         1 FAA       0.095200
     84 H2           1.2730    -0.6420    -0.4500 h1         1 FAA       0.114700
     85 HO2          1.9820     0.2850     1.5160 ho         1 FAA       0.497000
     86 H3           1.5940    -3.3220     0.9770 h1         1 FAA       0.059700
     87 HO3          0.2140    -3.0020    -1.4770 ho         1 FAA       0.463000
     88 H4          -1.0400    -2.0360     0.1230 h1         1 FAA       0.091700
     89 HO4          0.2760    -1.4320     2.1480 ho         1 FAA       0.490000
     90 H5'1        -0.4830    -4.7830     0.2740 h1         1 FAA       0.019200
     91 H5'2        -1.0170    -4.4670     1.9190 h1         1 FAA       0.019200
     92 H7P1         8.4540     0.7380    -0.3030 h1         1 FAA       0.098200
     93 H7P2         7.8530     1.5910    -1.7110 h1         1 FAA       0.098200
     94 H2P         10.3530     2.4960    -0.9930 ha         1 FAA       0.117500
     95 H3P         11.3910     4.5960    -0.1700 ha         1 FAA       0.135000
     96 HOP4         9.5350     6.9260     1.8140 ho         1 FAA       0.478000
     97 H5P          7.6930     5.6740     1.7750 ha         1 FAA       0.135000
     98 H6P          6.6440     3.6020     0.9690 ha         1 FAA       0.117500
     99 C7P          7.8180     1.5760    -0.6150 c3         1 FAA       0.094900
@<TRIPOS>BOND
     1     1     2 1   
     2     1     3 1   
     3     1     4 1   
     4     1    53 1   
     5     4     5 1   
     6     5     6 1   
     7     5    61 1   
     8     5    62 1   
     9     6     7 1   
    10     6     8 1   
    11     6    63 1   
    12     7    12 1   
    13     8     9 1   
    14     8    10 1   
    15     8    64 1   
    16     9    65 1   
    17    10    11 1   
    18    10    12 1   
    19    10    66 1   
    20    11    67 1   
    21    12    13 1   
    22    12    68 1   
    23    13    14 1   
    24    13    22 1   
    25    14    15 2   
    26    14    69 1   
    27    15    16 1   
    28    16    17 ar  
    29    16    22 ar  
    30    17    18 1   
    31    17    19 ar  
    32    18    70 1   
    33    18    71 1   
    34    19    20 ar  
    35    20    21 ar  
    36    20    72 1   
    37    21    22 ar  
    38    23    24 2   
    39    23    40 1   
    40    24    25 1   
    41    24    26 1   
    42    26    27 1   
    43    26    73 1   
    44    27    28 2   
    45    27    29 1   
    46    29    30 1   
    47    29    40 2   
    48    30    31 1   
    49    30    99 1   
    50    31    32 ar  
    51    31    38 ar  
    52    32    33 ar  
    53    32    74 1   
    54    33    34 1   
    55    33    35 ar  
    56    34    75 1   
    57    34    76 1   
    58    34    77 1   
    59    35    36 1   
    60    35    37 ar  
    61    36    78 1   
    62    36    79 1   
    63    36    80 1   
    64    37    38 ar  
    65    37    81 1   
    66    38    39 1   
    67    39    40 1   
    68    39    41 1   
    69    41    42 1   
    70    41    82 1   
    71    41    83 1   
    72    42    43 1   
    73    42    44 1   
    74    42    84 1   
    75    43    85 1   
    76    44    45 1   
    77    44    46 1   
    78    44    86 1   
    79    45    87 1   
    80    46    47 1   
    81    46    48 1   
    82    46    88 1   
    83    47    89 1   
    84    48    49 1   
    85    48    90 1   
    86    48    91 1   
    87    49    50 1   
    88    50    51 1   
    89    50    52 1   
    90    50    53 1   
    91    54    55 ar  
    92    54    60 ar  
    93    54    99 1   
    94    55    56 ar  
    95    55    94 1   
    96    56    57 ar  
    97    56    95 1   
    98    57    58 1   
    99    57    59 ar  
   100    58    96 1   
   101    59    60 ar  
   102    59    97 1   
   103    60    98 1   
   104    92    99 1   
   105    93    99 1   
@<TRIPOS>SUBSTRUCTURE
     1 FAA         1 TEMP              0 ****  ****    0 ROOT
