@<TRIPOS>MOLECULE
FAC
   13    12     1     0     0
SMALL
No Charge or Current Charge


@<TRIPOS>ATOM
      1 C           -0.5060     0.0050     0.0310 c3         1 FAC       0.323000
      2 O1          -1.3720     1.1210     0.2490 oh         1 FAC      -0.604500
      3 O2          -1.3980    -1.0970    -0.1400 oh         1 FAC      -0.604500
      4 C1           0.3320     0.2210    -1.2940 c3         1 FAC       0.239000
      5 C2           0.3970    -0.2230     1.3110 c3         1 FAC       0.239000
      6 F1          -0.4820     0.4190    -2.3590 f          1 FAC      -0.097000
      7 F2           1.1430     1.3020    -1.2060 f          1 FAC      -0.097000
      8 F3           1.1100    -0.8510    -1.5790 f          1 FAC      -0.097000
      9 F4          -0.3640    -0.4100     2.4170 f          1 FAC      -0.097000
     10 F5           1.1860    -1.3160     1.1820 f          1 FAC      -0.097000
     11 F6           1.2040     0.8370     1.5550 f          1 FAC      -0.097000
     12 H1          -1.7100     1.3880    -0.6320 ho         1 FAC       0.494500
     13 H2          -1.6940    -1.3600     0.7580 ho         1 FAC       0.494500
@<TRIPOS>BOND
     1     1     2 1   
     2     1     3 1   
     3     1     4 1   
     4     1     5 1   
     5     2    12 1   
     6     3    13 1   
     7     4     6 1   
     8     4     7 1   
     9     4     8 1   
    10     5     9 1   
    11     5    10 1   
    12     5    11 1   
@<TRIPOS>SUBSTRUCTURE
     1 FAC         1 TEMP              0 ****  ****    0 ROOT
