@<TRIPOS>MOLECULE
FAC
   13    12     1     0     0
SMALL
abcg2


@<TRIPOS>ATOM
      1 C           -0.6270     0.0080     0.0240 c3         1 FAC       0.323000
      2 O1          -1.4590     1.1010     0.0320 oh         1 FAC      -0.604500
      3 O2          -1.4780    -1.0720     0.0340 oh         1 FAC      -0.604500
      4 C1           0.2150    -0.0060    -1.2840 c3         1 FAC       0.239000
      5 C2           0.2490     0.0040     1.3090 c3         1 FAC       0.239000
      6 F1          -0.5940     0.0040    -2.3340 f          1 FAC      -0.097000
      7 F2           1.0120     1.0620    -1.3710 f          1 FAC      -0.097000
      8 F3           0.9790    -1.0980    -1.3650 f          1 FAC      -0.097000
      9 F4          -0.5310     0.0180     2.3800 f          1 FAC      -0.097000
     10 F5           1.0180    -1.0860     1.3780 f          1 FAC      -0.097000
     11 F6           1.0450     1.0740     1.3670 f          1 FAC      -0.097000
     12 H1          -0.9770     1.9340     0.0010 ho         1 FAC       0.494500
     13 H2          -1.0070    -1.9070     0.1230 ho         1 FAC       0.494500
@<TRIPOS>BOND
     1     1     2 1   
     2     1     3 1   
     3     1     4 1   
     4     1     5 1   
     5     2    12 1   
     6     3    13 1   
     7     4     6 1   
     8     4     7 1   
     9     4     8 1   
    10     5     9 1   
    11     5    10 1   
    12     5    11 1   
@<TRIPOS>SUBSTRUCTURE
     1 FAC         1 TEMP              0 ****  ****    0 ROOT
