@<TRIPOS>MOLECULE
FAD
   84    89     1     0     0
SMALL
bcc


@<TRIPOS>ATOM
      1 PA          21.6200     0.5580    23.4660 p5         1 FAD       1.484800
      2 O1A         21.4210    -0.6930    22.6460 o          1 FAD      -0.840500
      3 O2A         20.5610     1.6090    23.5440 o          1 FAD      -0.840500
      4 O5B         21.9900     0.0020    24.9570 os         1 FAD      -0.556200
      5 C5B         22.1720     0.9100    26.0240 c3         1 FAD       0.196400
      6 C4B         21.1860     0.5770    27.1370 c5         1 FAD       0.115100
      7 O4B         21.4910     1.3950    28.2720 os         1 FAD      -0.416600
      8 C3B         19.7270     0.8580    26.7930 c5         1 FAD       0.129100
      9 O3B         18.9240    -0.0040    27.5640 oh         1 FAD      -0.604800
     10 C2B         19.5890     2.3030    27.2550 c5         1 FAD       0.062100
     11 O2B         18.2550     2.6520    27.4560 oh         1 FAD      -0.588800
     12 C1B         20.4310     2.2730    28.5360 c5         1 FAD       0.217800
     13 N9A         20.9590     3.5550    28.9240 na         1 FAD      -0.250000
     14 C8A         21.8200     4.3470    28.2120 cc         1 FAD       0.440700
     15 N7A         22.1260     5.4540    28.8200 nd         1 FAD      -0.579100
     16 C5A         21.4300     5.3980    30.0010 ca         1 FAD      -0.224200
     17 C6A         21.3260     6.2790    31.0920 ca         1 FAD       0.768200
     18 N6A         21.9760     7.4430    31.1470 nv         1 FAD      -0.966500
     19 N1A         20.5430     5.9190    32.1160 nb         1 FAD      -0.846000
     20 C2A         19.9030     4.7540    32.0620 ca         1 FAD       0.685900
     21 N3A         19.9200     3.8490    31.0990 nb         1 FAD      -0.730000
     22 C4A         20.7010     4.2230    30.0880 ca         1 FAD       0.448800
     23 N1          20.9720    -2.2710    14.5560 nc         1 FAD      -0.445400
     24 C2          21.1760    -3.4300    13.8770 c          1 FAD       0.875900
     25 O2          22.2630    -3.9690    13.8100 o          1 FAD      -0.595500
     26 N3          20.0900    -4.0300    13.2320 ns         1 FAD      -0.635500
     27 C4          18.8100    -3.5640    13.1890 c          1 FAD       0.631000
     28 O4          17.9120    -4.1340    12.6100 o          1 FAD      -0.596500
     29 C4X         18.6300    -2.2890    13.9200 cd         1 FAD       0.265800
     30 N5          17.4620    -1.7460    13.9260 nc         1 FAD      -0.532000
     31 C5X         17.2920    -0.5860    14.5970 ca         1 FAD       0.277600
     32 C6          16.0160     0.0050    14.5970 ca         1 FAD      -0.113300
     33 C7          15.7660     1.1760    15.2610 ca         1 FAD      -0.117300
     34 C7M         14.4040     1.7990    15.2500 c3         1 FAD      -0.037800
     35 C8          16.8340     1.7860    15.9720 ca         1 FAD      -0.010300
     36 C8M         16.5880     3.0510    16.7330 c3         1 FAD      -0.057800
     37 C9          18.0920     1.2190    15.9820 ca         1 FAD      -0.145000
     38 C9A         18.3560     0.0320    15.2890 ca         1 FAD       0.026400
     39 N10         19.5990    -0.5580    15.2350 na         1 FAD      -0.055100
     40 C10         19.7850    -1.7310    14.5740 cd         1 FAD       0.099400
     41 C1          20.7660     0.0570    15.8700 c3         1 FAD       0.026300
     42 C11         21.0110    -0.4960    17.2740 c3         1 FAD       0.146100
     43 O6          19.8030    -0.4300    17.9830 oh         1 FAD      -0.653800
     44 C3          22.1420     0.3030    17.9460 c3         1 FAD       0.103100
     45 O3          23.2760     0.2010    17.1110 oh         1 FAD      -0.604800
     46 C12         22.4740    -0.2320    19.3500 c3         1 FAD       0.144100
     47 O7          21.2850    -0.1970    20.1020 oh         1 FAD      -0.725800
     48 C5          23.5810     0.5860    20.0020 c3         1 FAD       0.185400
     49 O5          24.0240    -0.0920    21.1630 os         1 FAD      -0.573200
     50 P           24.4480     0.7280    22.5160 p5         1 FAD       1.464800
     51 O1P         24.9310    -0.3020    23.4820 o          1 FAD      -0.841000
     52 O2P         25.2540     1.9350    22.1590 o          1 FAD      -0.841000
     53 O3P         22.9840     1.3320    23.0110 os         1 FAD      -0.727800
     54 H51A        23.1910     0.8060    26.4080 h1         1 FAD       0.038200
     55 H52A        22.0520     1.9520    25.7100 h1         1 FAD       0.038200
     56 H4B         21.3110    -0.4730    27.4180 h1         1 FAD       0.098700
     57 H3B         19.5260     0.7540    25.7230 h1         1 FAD       0.123700
     58 HO3A        18.0030     0.2510    27.4460 ho         1 FAD       0.410000
     59 H2B         20.0710     2.9560    26.5150 h1         1 FAD       0.081700
     60 HO2A        18.1880     3.6060    27.5650 ho         1 FAD       0.408000
     61 H1B         19.8200     1.9280    29.3770 h2         1 FAD       0.097700
     62 H8A         22.1940     4.0470    27.2440 h5         1 FAD       0.095800
     63 H61A        21.8330     8.0670    31.9220 hn         1 FAD       0.443800
     64 H62A        22.5270     7.7660    30.3710 hn         1 FAD       0.443800
     65 H2A         19.2870     4.5210    32.9250 h5         1 FAD       0.032100
     66 HM71        14.4310     2.8060    14.8290 hc         1 FAD       0.038700
     67 HM72        13.7070     1.2070    14.6600 hc         1 FAD       0.038700
     68 HM73        13.9980     1.8890    16.2590 hc         1 FAD       0.038700
     69 HM81        17.4880     3.3970    17.2370 hc         1 FAD       0.050367
     70 HM82        16.2420     3.8470    16.0720 hc         1 FAD       0.050367
     71 HM83        15.8110     2.9080    17.4860 hc         1 FAD       0.050367
     72 H9          18.8610     1.7060    16.5600 ha         1 FAD       0.169000
     73 H1'1        21.6220    -0.1390    15.2330 h1         1 FAD       0.074200
     74 H1'2        20.6160     1.1340    15.8950 h1         1 FAD       0.074200
     75 H2          21.3540    -1.5380    17.1760 h1         1 FAD       0.068700
     76 HO2         20.0440    -0.4490    18.9280 ho         1 FAD       0.483000
     77 H3          21.8100     1.3480    18.0410 h1         1 FAD       0.032700
     78 HO3         23.7180     1.0520    17.0710 ho         1 FAD       0.400000
     79 H4          22.8390    -1.2660    19.2300 h1         1 FAD       0.046700
     80 HO4         21.4140    -0.4570    21.0570 ho         1 FAD       0.530000
     81 H5'1        24.4200     0.7050    19.3110 h1         1 FAD       0.015200
     82 H5'2        23.1950     1.5870    20.2250 h1         1 FAD       0.015200
     83 HN3         20.2820    -4.8960    12.7440 hn         1 FAD       0.325500
     84 H6          15.2310    -0.5030    14.0500 ha         1 FAD       0.146000
@<TRIPOS>BOND
     1     1     2 1   
     2     1     3 1   
     3     1     4 1   
     4     1    53 1   
     5     4     5 1   
     6     5     6 1   
     7     5    54 1   
     8     5    55 1   
     9     6     7 1   
    10     6     8 1   
    11     6    56 1   
    12     7    12 1   
    13     8     9 1   
    14     8    10 1   
    15     8    57 1   
    16     9    58 1   
    17    10    11 1   
    18    10    12 1   
    19    10    59 1   
    20    11    60 1   
    21    12    13 1   
    22    12    61 1   
    23    13    14 1   
    24    13    22 1   
    25    14    15 2   
    26    14    62 1   
    27    15    16 1   
    28    16    17 ar  
    29    16    22 ar  
    30    17    18 1   
    31    17    19 ar  
    32    18    63 1   
    33    18    64 1   
    34    19    20 ar  
    35    20    21 ar  
    36    20    65 1   
    37    21    22 ar  
    38    23    24 1   
    39    23    40 2   
    40    24    25 2   
    41    24    26 1   
    42    26    27 1   
    43    26    83 1   
    44    27    28 2   
    45    27    29 1   
    46    29    30 2   
    47    29    40 1   
    48    30    31 1   
    49    31    32 ar  
    50    31    38 ar  
    51    32    33 ar  
    52    32    84 1   
    53    33    34 1   
    54    33    35 ar  
    55    34    66 1   
    56    34    67 1   
    57    34    68 1   
    58    35    36 1   
    59    35    37 ar  
    60    36    69 1   
    61    36    70 1   
    62    36    71 1   
    63    37    38 ar  
    64    37    72 1   
    65    38    39 1   
    66    39    40 1   
    67    39    41 1   
    68    41    42 1   
    69    41    73 1   
    70    41    74 1   
    71    42    43 1   
    72    42    44 1   
    73    42    75 1   
    74    43    76 1   
    75    44    45 1   
    76    44    46 1   
    77    44    77 1   
    78    45    78 1   
    79    46    47 1   
    80    46    48 1   
    81    46    79 1   
    82    47    80 1   
    83    48    49 1   
    84    48    81 1   
    85    48    82 1   
    86    49    50 1   
    87    50    51 1   
    88    50    52 1   
    89    50    53 1   
@<TRIPOS>SUBSTRUCTURE
     1 FAD         1 TEMP              0 ****  ****    0 ROOT
