@<TRIPOS>MOLECULE
FAD
   84    89     1     0     0
SMALL
No Charge or Current Charge


@<TRIPOS>ATOM
      1 PA          21.4160     0.5640    24.0140 p5         1 FAD       1.484800
      2 O1A         21.0410    -0.4870    23.0250 o          1 FAD      -0.840500
      3 O2A         20.3030     1.5400    24.1690 o          1 FAD      -0.840500
      4 O5B         21.8150    -0.0520    25.4460 os         1 FAD      -0.579400
      5 C5B         21.8720     0.7920    26.6050 c3         1 FAD       0.219600
      6 C4B         20.7600     0.3730    27.6140 c5         1 FAD       0.138300
      7 O4B         20.8090     1.2290    28.7820 os         1 FAD      -0.463000
      8 C3B         19.2800     0.5130    27.1350 c5         1 FAD       0.152300
      9 O3B         18.3500    -0.1930    27.9710 oh         1 FAD      -0.727000
     10 C2B         19.0540     2.0460    27.3090 c5         1 FAD       0.085300
     11 O2B         17.6510     2.3290    27.5200 oh         1 FAD      -0.711000
     12 C1B         19.9610     2.3820    28.5600 c5         1 FAD       0.270300
     13 N9A         20.7850     3.5960    28.5320 na         1 FAD      -0.279300
     14 C8A         21.1670     4.3380    27.4030 cc         1 FAD       0.440700
     15 N7A         21.9060     5.4120    27.7440 nd         1 FAD      -0.579100
     16 C5A         21.9780     5.3230    29.1370 ca         1 FAD      -0.093600
     17 C6A         22.6210     6.1760    30.0600 ca         1 FAD       0.439900
     18 N6A         23.3110     7.2850    29.6810 nv         1 FAD      -1.076900
     19 N1A         22.5700     5.9370    31.3800 nb         1 FAD      -0.320000
     20 C2A         21.8770     4.8350    31.7580 ca         1 FAD       0.159900
     21 N3A         21.2340     3.9630    30.9450 nb         1 FAD      -0.204000
     22 C4A         21.3030     4.2330    29.6260 ca         1 FAD       0.120500
     23 N1          21.2870    -1.7710    14.5260 nc         1 FAD      -0.445400
     24 C2          21.8090    -2.7670    13.7270 c          1 FAD       0.733400
     25 O2          22.9450    -3.1840    13.8640 o          1 FAD      -0.520000
     26 N3          20.9960    -3.2740    12.7630 ns         1 FAD      -0.501500
     27 C4          19.7070    -2.9210    12.4790 c          1 FAD       0.488500
     28 O4          19.0980    -3.4700    11.5690 o          1 FAD      -0.521000
     29 C4X         19.1680    -1.8390    13.3720 cd         1 FAD       0.200500
     30 N5          17.9130    -1.4080    13.1810 nc         1 FAD      -0.532000
     31 C5X         17.5140    -0.4420    14.1150 ca         1 FAD       0.147000
     32 C6          16.1800    -0.0050    14.0030 ca         1 FAD      -0.030000
     33 C7          15.6200     0.9240    14.8950 ca         1 FAD      -0.117300
     34 C7M         14.1640     1.3520    14.7200 c3         1 FAD      -0.037800
     35 C8          16.4110     1.4260    15.9450 ca         1 FAD      -0.010300
     36 C8M         15.8420     2.4170    16.9570 c3         1 FAD      -0.057800
     37 C9          17.7480     1.0060    16.0630 ca         1 FAD      -0.127000
     38 C9A         18.3340     0.0900    15.1490 ca         1 FAD       0.041000
     39 N10         19.6940    -0.2800    15.2740 na         1 FAD       0.017000
     40 C10         20.0460    -1.3120    14.3910 cd         1 FAD       0.114000
     41 C1          20.6520     0.4380    16.1650 c3         1 FAD       0.055600
     42 C11         20.9300    -0.2780    17.5160 c3         1 FAD       0.169300
     43 O6          19.7110    -0.4410    18.2570 oh         1 FAD      -0.776000
     44 C3          21.9670     0.4830    18.4100 c3         1 FAD       0.126300
     45 O3          23.2090     0.6190    17.6910 oh         1 FAD      -0.667000
     46 C12         22.2080    -0.2170    19.7960 c3         1 FAD       0.167300
     47 O7          20.9430    -0.3790    20.4980 oh         1 FAD      -0.848000
     48 C5          23.2430     0.5470    20.6790 c3         1 FAD       0.208600
     49 O5          23.4620    -0.2220    21.8640 os         1 FAD      -0.596400
     50 P           24.0010     0.4860    23.2040 p5         1 FAD       1.464800
     51 O1P         24.4270    -0.5160    24.2220 o          1 FAD      -0.841000
     52 O2P         25.1330     1.4020    22.8780 o          1 FAD      -0.841000
     53 O3P         22.7410     1.3290    23.6430 os         1 FAD      -0.727800
     54 H51A        22.8470     0.6810    27.0960 h1         1 FAD       0.038200
     55 H52A        21.7610     1.8500    26.3380 h1         1 FAD       0.038200
     56 H4B         20.9720    -0.6600    27.9220 h1         1 FAD       0.098700
     57 H3B         19.1640     0.2060    26.0850 h1         1 FAD       0.123700
     58 HO3A        17.6390     0.4860    28.1040 ho         1 FAD       0.509000
     59 H2B         19.4100     2.5620    26.4090 h1         1 FAD       0.081700
     60 HO2A        17.5120     3.2970    27.3810 ho         1 FAD       0.507000
     61 H1B         19.3150     2.5010    29.4390 h2         1 FAD       0.097700
     62 H8A         20.8930     4.0610    26.3920 h5         1 FAD       0.095800
     63 H61A        23.4890     7.9980    30.3830 hn         1 FAD       0.499000
     64 H62A        23.1810     7.6040    28.7240 hn         1 FAD       0.499000
     65 H2A         21.8300     4.6310    32.8260 h5         1 FAD       0.032100
     66 HM71        14.0850     2.4370    14.5820 hc         1 FAD       0.038700
     67 HM72        13.7010     0.8780    13.8460 hc         1 FAD       0.038700
     68 HM73        13.5640     1.0770    15.5960 hc         1 FAD       0.038700
     69 HM81        16.5830     2.7000    17.7140 hc         1 FAD       0.050367
     70 HM82        15.5120     3.3380    16.4640 hc         1 FAD       0.050367
     71 HM83        14.9830     1.9900    17.4870 hc         1 FAD       0.050367
     72 H9          18.3180     1.4010    16.8960 ha         1 FAD       0.151000
     73 H1'1        21.6010     0.5340    15.6240 h1         1 FAD       0.074200
     74 H1'2        20.3200     1.4660    16.3430 h1         1 FAD       0.074200
     75 H2          21.3550    -1.2670    17.2920 h1         1 FAD       0.068700
     76 HO2         20.0380    -0.4560    19.2190 ho         1 FAD       0.582000
     77 H3          21.5590     1.4840    18.6080 h1         1 FAD       0.032700
     78 HO3         23.6040     1.4850    17.9370 ho         1 FAD       0.439000
     79 H4          22.6340    -1.2090    19.5900 h1         1 FAD       0.046700
     80 HO4         21.1390    -0.4670    21.5060 ho         1 FAD       0.629000
     81 H5'1        24.1870     0.6650    20.1320 h1         1 FAD       0.015200
     82 H5'2        22.8540     1.5470    20.9160 h1         1 FAD       0.015200
     83 HN3         21.4000    -3.9990    12.1910 hn         1 FAD       0.325500
     84 H6          15.5650    -0.4110    13.2030 ha         1 FAD       0.128000
@<TRIPOS>BOND
     1     1     2 1   
     2     1     3 1   
     3     1     4 1   
     4     1    53 1   
     5     4     5 1   
     6     5     6 1   
     7     5    54 1   
     8     5    55 1   
     9     6     7 1   
    10     6     8 1   
    11     6    56 1   
    12     7    12 1   
    13     8     9 1   
    14     8    10 1   
    15     8    57 1   
    16     9    58 1   
    17    10    11 1   
    18    10    12 1   
    19    10    59 1   
    20    11    60 1   
    21    12    13 1   
    22    12    61 1   
    23    13    14 1   
    24    13    22 1   
    25    14    15 2   
    26    14    62 1   
    27    15    16 1   
    28    16    17 ar  
    29    16    22 ar  
    30    17    18 1   
    31    17    19 ar  
    32    18    63 1   
    33    18    64 1   
    34    19    20 ar  
    35    20    21 ar  
    36    20    65 1   
    37    21    22 ar  
    38    23    24 1   
    39    23    40 2   
    40    24    25 2   
    41    24    26 1   
    42    26    27 1   
    43    26    83 1   
    44    27    28 2   
    45    27    29 1   
    46    29    30 2   
    47    29    40 1   
    48    30    31 1   
    49    31    32 ar  
    50    31    38 ar  
    51    32    33 ar  
    52    32    84 1   
    53    33    34 1   
    54    33    35 ar  
    55    34    66 1   
    56    34    67 1   
    57    34    68 1   
    58    35    36 1   
    59    35    37 ar  
    60    36    69 1   
    61    36    70 1   
    62    36    71 1   
    63    37    38 ar  
    64    37    72 1   
    65    38    39 1   
    66    39    40 1   
    67    39    41 1   
    68    41    42 1   
    69    41    73 1   
    70    41    74 1   
    71    42    43 1   
    72    42    44 1   
    73    42    75 1   
    74    43    76 1   
    75    44    45 1   
    76    44    46 1   
    77    44    77 1   
    78    45    78 1   
    79    46    47 1   
    80    46    48 1   
    81    46    79 1   
    82    47    80 1   
    83    48    49 1   
    84    48    81 1   
    85    48    82 1   
    86    49    50 1   
    87    50    51 1   
    88    50    52 1   
    89    50    53 1   
@<TRIPOS>SUBSTRUCTURE
     1 FAD         1 TEMP              0 ****  ****    0 ROOT
