@<TRIPOS>MOLECULE
FAE
   85    90     1     0     0
SMALL
abcg2


@<TRIPOS>ATOM
      1 PA          -4.7560    -3.8930    -1.3530 p5         1 FAE       1.494800
      2 O1A         -4.9110    -5.2110    -2.0270 o          1 FAE      -0.830000
      3 O2A         -4.8020    -2.6120    -2.1430 o          1 FAE      -0.830000
      4 O5B         -5.8660    -3.8450    -0.1520 os         1 FAE      -0.572400
      5 C5B         -6.5120    -2.6630     0.2630 c3         1 FAE       0.226600
      6 C4B         -5.8650    -2.0610     1.4970 c5         1 FAE       0.134300
      7 O4B         -4.5040    -1.6880     1.2340 os         1 FAE      -0.392000
      8 C3B         -6.5650    -0.7840     1.9510 c5         1 FAE       0.109300
      9 O3B         -6.4070    -0.6520     3.3390 oh         1 FAE      -0.701000
     10 C2B         -5.7550     0.2800     1.2050 c5         1 FAE       0.066300
     11 O2B         -5.7790     1.5550     1.7640 oh         1 FAE      -0.702000
     12 C1B         -4.3520    -0.3140     1.3090 c5         1 FAE       0.319300
     13 N9A         -3.4730     0.1240     0.2310 na         1 FAE      -0.270200
     14 C8A         -3.4970    -0.3140    -1.0290 cc         1 FAE       0.374700
     15 N7A         -2.6030     0.3520    -1.7340 na         1 FAE      -0.217600
     16 C5A         -1.9470     1.2420    -0.9130 ca         1 FAE      -0.267200
     17 C6A         -0.8700     2.1320    -1.0480 ca         1 FAE       0.421900
     18 N6A         -0.1780     2.2950    -2.1910 nv         1 FAE      -1.048900
     19 N1A         -0.4810     2.7720     0.0520 nb         1 FAE      -0.259000
     20 C2A         -1.1070     2.5540     1.2020 ca         1 FAE       0.187900
     21 N3A         -2.1230     1.7370     1.4330 nb         1 FAE      -0.179000
     22 C4A         -2.5010     1.0950     0.3430 ca         1 FAE       0.168500
     23 O3P         -3.4050    -3.8930    -0.4110 os         1 FAE      -0.706800
     24 N1           2.9490     3.0620    -0.9210 nc         1 FAE      -0.478400
     25 C2           2.4840     4.3210    -1.0830 c          1 FAE       0.753400
     26 O2           1.6380     4.6070    -1.9170 o          1 FAE      -0.573000
     27 N3           2.9810     5.3390    -0.2740 ns         1 FAE      -0.491500
     28 C4           3.9340     5.2110     0.6930 c          1 FAE       0.487500
     29 O4           4.3330     6.1400     1.3590 o          1 FAE      -0.500000
     30 C4X          4.4260     3.8230     0.8470 cd         1 FAE       0.195500
     31 N5           5.3340     3.5850     1.7310 nc         1 FAE      -0.518000
     32 C5X          5.7760     2.3190     1.8760 ca         1 FAE       0.153000
     33 C6           6.7660     2.0620     2.8410 ca         1 FAE      -0.027000
     34 C7           7.2580     0.8000     3.0490 ca         1 FAE      -0.107300
     35 C7M          8.3140     0.5450     4.0790 c3         1 FAE      -0.042800
     36 C8           6.7340    -0.2640     2.2670 ca         1 FAE      -0.003300
     37 C8M          7.2300    -1.6590     2.4830 c3         1 FAE      -0.059800
     38 C9           5.7620    -0.0290     1.3170 ca         1 FAE      -0.133000
     39 C9A          5.2680     1.2600     1.0910 ca         1 FAE       0.028000
     40 N10          4.3220     1.5550     0.1360 na         1 FAE       0.015000
     41 C10          3.8570     2.8210    -0.0150 cd         1 FAE       0.124000
     42 C1           3.7770     0.5310    -0.7590 c3         1 FAE       0.054600
     43 C11          2.4660    -0.0370    -0.2270 c3         1 FAE       0.142300
     44 O6           2.7420    -0.7230     0.9650 oh         1 FAE      -0.761000
     45 C3           1.7940    -0.9110    -1.3060 c3         1 FAE       0.128300
     46 O3           1.5970    -0.1640    -2.4820 oh         1 FAE      -0.677000
     47 C12          0.4760    -1.5230    -0.7890 c3         1 FAE       0.137300
     48 O7           0.8050    -2.3560     0.2960 oh         1 FAE      -0.836000
     49 C5          -0.2700    -2.2590    -1.8960 c3         1 FAE       0.190600
     50 O5          -1.5920    -2.6030    -1.5040 os         1 FAE      -0.634400
     51 P           -1.8490    -4.0760    -0.8240 p5         1 FAE       1.469800
     52 O1P         -1.6560    -5.1520    -1.8370 o          1 FAE      -0.811500
     53 O2P         -1.0710    -4.1240     0.4750 o          1 FAE      -0.811500
     54 H51A        -6.5670    -1.9310    -0.5480 h1         1 FAE       0.023700
     55 H52A        -7.5390    -2.9290     0.5270 h1         1 FAE       0.023700
     56 H4B         -5.8620    -2.8050     2.2990 h1         1 FAE       0.117700
     57 H3B         -7.6220    -0.7690     1.6570 h1         1 FAE       0.055700
     58 HO3A        -6.5850     0.2660     3.5750 ho         1 FAE       0.510000
     59 H2B         -6.0660     0.2910     0.1520 h1         1 FAE       0.058700
     60 HO2A        -6.5350     2.0370     1.4160 ho         1 FAE       0.511000
     61 H1B         -3.8620     0.0060     2.2360 h2         1 FAE       0.123700
     62 H8A         -4.1200    -1.1280    -1.4330 h5         1 FAE       0.214800
     63 H7A         -2.4420     0.1910    -2.7180 hn         1 FAE       0.405000
     64 H61A        -0.6400     2.1140    -3.0690 hn         1 FAE       0.509000
     65 H62A         0.4850     3.0720    -2.2070 hn         1 FAE       0.509000
     66 H2A         -0.7380     3.1130     2.0540 h5         1 FAE       0.059100
     67 HM71         7.9590    -0.1330     4.8570 hc         1 FAE       0.044367
     68 HM72         9.2010     0.0880     3.6380 hc         1 FAE       0.044367
     69 HM73         8.6210     1.4720     4.5600 hc         1 FAE       0.044367
     70 HM81         7.0470    -1.9880     3.5080 hc         1 FAE       0.053033
     71 HM82         6.7450    -2.3640     1.8110 hc         1 FAE       0.053033
     72 HM83         8.3070    -1.7250     2.3180 hc         1 FAE       0.053033
     73 H9           5.3720    -0.8730     0.7700 ha         1 FAE       0.151000
     74 H1'1         3.6250     0.9990    -1.7260 h1         1 FAE       0.084700
     75 H1'2         4.5170    -0.2550    -0.8880 h1         1 FAE       0.084700
     76 H2           1.7830     0.8100    -0.0370 h1         1 FAE       0.042700
     77 HO2          2.0480    -1.3970     1.0830 ho         1 FAE       0.574000
     78 H3           2.4650    -1.7360    -1.5750 h1         1 FAE       0.086700
     79 HO3          1.1090     0.6510    -2.2820 ho         1 FAE       0.453000
     80 H4          -0.1690    -0.6920    -0.4520 h1         1 FAE      -0.000300
     81 HO4          0.0770    -3.0200     0.4700 ho         1 FAE       0.620000
     82 H5'1        -0.3580    -1.6120    -2.7690 h1         1 FAE       0.037700
     83 H5'2         0.3030    -3.1410    -2.2090 h1         1 FAE       0.037700
     84 HN3          2.5990     6.2640    -0.4260 hn         1 FAE       0.334500
     85 H6           7.1280     2.9020     3.4210 ha         1 FAE       0.136000
@<TRIPOS>BOND
     1     1     2 1   
     2     1     3 1   
     3     1     4 1   
     4     1    23 1   
     5     4     5 1   
     6     5     6 1   
     7     5    54 1   
     8     5    55 1   
     9     6     7 1   
    10     6     8 1   
    11     6    56 1   
    12     7    12 1   
    13     8     9 1   
    14     8    10 1   
    15     8    57 1   
    16     9    58 1   
    17    10    11 1   
    18    10    12 1   
    19    10    59 1   
    20    11    60 1   
    21    12    13 1   
    22    12    61 1   
    23    13    14 2   
    24    13    22 1   
    25    14    15 1   
    26    14    62 1   
    27    15    16 1   
    28    15    63 1   
    29    16    17 ar  
    30    16    22 ar  
    31    17    18 1   
    32    17    19 ar  
    33    18    64 1   
    34    18    65 1   
    35    19    20 ar  
    36    20    21 ar  
    37    20    66 1   
    38    21    22 ar  
    39    23    51 1   
    40    24    25 1   
    41    24    41 2   
    42    25    26 2   
    43    25    27 1   
    44    27    28 1   
    45    27    84 1   
    46    28    29 2   
    47    28    30 1   
    48    30    31 2   
    49    30    41 1   
    50    31    32 1   
    51    32    33 ar  
    52    32    39 ar  
    53    33    34 ar  
    54    33    85 1   
    55    34    35 1   
    56    34    36 ar  
    57    35    67 1   
    58    35    68 1   
    59    35    69 1   
    60    36    37 1   
    61    36    38 ar  
    62    37    70 1   
    63    37    71 1   
    64    37    72 1   
    65    38    39 ar  
    66    38    73 1   
    67    39    40 1   
    68    40    41 1   
    69    40    42 1   
    70    42    43 1   
    71    42    74 1   
    72    42    75 1   
    73    43    44 1   
    74    43    45 1   
    75    43    76 1   
    76    44    77 1   
    77    45    46 1   
    78    45    47 1   
    79    45    78 1   
    80    46    79 1   
    81    47    48 1   
    82    47    49 1   
    83    47    80 1   
    84    48    81 1   
    85    49    50 1   
    86    49    82 1   
    87    49    83 1   
    88    50    51 1   
    89    51    52 1   
    90    51    53 1   
@<TRIPOS>SUBSTRUCTURE
     1 FAE         1 TEMP              0 ****  ****    0 ROOT
