@<TRIPOS>MOLECULE
FAE
   85    90     1     0     0
SMALL
No Charge or Current Charge


@<TRIPOS>ATOM
      1 PA          -4.5170    -4.3540    -1.1670 p5         1 FAE       1.494800
      2 O1A         -4.5370    -5.7740    -1.6280 o          1 FAE      -0.830000
      3 O2A         -4.4390    -3.3790    -2.2940 o          1 FAE      -0.830000
      4 O5B         -5.8680    -4.0980    -0.3210 os         1 FAE      -0.572400
      5 C5B         -6.3910    -2.7790    -0.0990 c3         1 FAE       0.226600
      6 C4B         -5.9100    -2.2080     1.2700 c5         1 FAE       0.134300
      7 O4B         -4.5570    -1.6820     1.1690 os         1 FAE      -0.392000
      8 C3B         -6.7670    -0.9830     1.7360 c5         1 FAE       0.109300
      9 O3B         -6.6470    -0.7120     3.1390 oh         1 FAE      -0.701000
     10 C2B         -6.0980     0.1440     0.8970 c5         1 FAE       0.066300
     11 O2B         -6.4450     1.4530     1.3910 oh         1 FAE      -0.702000
     12 C1B         -4.5960    -0.2410     1.1110 c5         1 FAE       0.319300
     13 N9A         -3.6200     0.2300     0.1330 na         1 FAE      -0.270200
     14 C8A         -3.6540    -0.0330    -1.2470 cc         1 FAE       0.374700
     15 N7A         -2.6000     0.6820    -1.8210 na         1 FAE      -0.217600
     16 C5A         -1.9430     1.3530    -0.8000 ca         1 FAE      -0.267200
     17 C6A         -0.8070     2.1640    -0.8150 ca         1 FAE       0.421900
     18 N6A         -0.1220     2.4490    -1.9470 nv         1 FAE      -1.048900
     19 N1A         -0.3190     2.6780     0.3220 nb         1 FAE      -0.259000
     20 C2A         -0.9890     2.3610     1.4570 ca         1 FAE       0.187900
     21 N3A         -2.0900     1.5770     1.5570 nb         1 FAE      -0.179000
     22 C4A         -2.5570     1.0730     0.3980 ca         1 FAE       0.168500
     23 O3P         -3.4910    -4.1070     0.0010 os         1 FAE      -0.706800
     24 N1           3.0110     3.2680    -0.6930 nc         1 FAE      -0.478400
     25 C2           2.5730     4.5560    -0.8920 c          1 FAE       0.753400
     26 O2           1.6190     4.8030    -1.6070 o          1 FAE      -0.573000
     27 N3           3.2480     5.5450    -0.2550 ns         1 FAE      -0.491500
     28 C4           4.3280     5.4240     0.5760 c          1 FAE       0.487500
     29 O4           4.8390     6.4150     1.0800 o          1 FAE      -0.500000
     30 C4X          4.7760     4.0040     0.7770 cd         1 FAE       0.195500
     31 N5           5.8290     3.7640     1.5690 nc         1 FAE      -0.518000
     32 C5X          6.1150     2.3980     1.7060 ca         1 FAE       0.153000
     33 C6           7.1810     2.0880     2.5710 ca         1 FAE      -0.027000
     34 C7           7.5640     0.7640     2.8430 ca         1 FAE      -0.107300
     35 C7M          8.7270     0.4960     3.7950 c3         1 FAE      -0.042800
     36 C8           6.8520    -0.2900     2.2400 ca         1 FAE      -0.003300
     37 C8M          7.2120    -1.7460     2.5190 c3         1 FAE      -0.059800
     38 C9           5.7900     0.0060     1.3670 ca         1 FAE      -0.133000
     39 C9A          5.4090     1.3410     1.0660 ca         1 FAE       0.028000
     40 N10          4.3550     1.6030     0.1590 na         1 FAE       0.015000
     41 C10          4.0430     2.9680     0.0910 cd         1 FAE       0.124000
     42 C1           3.7160     0.5510    -0.6840 c3         1 FAE       0.054600
     43 C11          2.3700     0.0230    -0.1150 c3         1 FAE       0.142300
     44 O6           2.6080    -0.7760     1.0510 oh         1 FAE      -0.761000
     45 C3           1.5560    -0.8210    -1.1520 c3         1 FAE       0.128300
     46 O3           1.2410    -0.0110    -2.3050 oh         1 FAE      -0.677000
     47 C12          0.2580    -1.4720    -0.5470 c3         1 FAE       0.137300
     48 O7           0.6290    -2.3320     0.5620 oh         1 FAE      -0.836000
     49 C5          -0.5780    -2.2300    -1.6390 c3         1 FAE       0.190600
     50 O5          -1.8500    -2.6720    -1.1240 os         1 FAE      -0.634400
     51 P           -1.9870    -4.1280    -0.4620 p5         1 FAE       1.469800
     52 O1P         -1.6330    -5.2170    -1.4150 o          1 FAE      -0.811500
     53 O2P         -1.0990    -4.1540     0.7360 o          1 FAE      -0.811500
     54 H51A        -6.1180    -2.0910    -0.9080 h1         1 FAE       0.023700
     55 H52A        -7.4870    -2.8330    -0.0820 h1         1 FAE       0.023700
     56 H4B         -5.9380    -3.0170     2.0110 h1         1 FAE       0.117700
     57 H3B         -7.8260    -1.1070     1.4660 h1         1 FAE       0.055700
     58 HO3A        -6.6950     0.2730     3.2070 ho         1 FAE       0.510000
     59 H2B         -6.3680     0.0560    -0.1650 h1         1 FAE       0.058700
     60 HO2A        -7.2010     1.7900     0.8520 ho         1 FAE       0.511000
     61 H1B         -4.2710     0.1510     2.0820 h2         1 FAE       0.123700
     62 H8A         -4.3430    -0.6880    -1.7680 h5         1 FAE       0.214800
     63 H7A         -2.3610     0.6700    -2.8070 hn         1 FAE       0.405000
     64 H61A        -0.6710     2.4990    -2.8010 hn         1 FAE       0.509000
     65 H62A         0.5400     3.2270    -1.8640 hn         1 FAE       0.509000
     66 H2A         -0.6000     2.7750     2.3850 h5         1 FAE       0.059100
     67 HM71         8.3980    -0.0750     4.6710 hc         1 FAE       0.044367
     68 HM72         9.5210    -0.0740     3.2980 hc         1 FAE       0.044367
     69 HM73         9.1770     1.4260     4.1630 hc         1 FAE       0.044367
     70 HM81         7.1240    -1.9770     3.5870 hc         1 FAE       0.053033
     71 HM82         6.5570    -2.4420     1.9810 hc         1 FAE       0.053033
     72 HM83         8.2410    -1.9640     2.2100 hc         1 FAE       0.053033
     73 H9           5.2570    -0.8350     0.9380 ha         1 FAE       0.151000
     74 H1'1         3.5320     0.9870    -1.6730 h1         1 FAE       0.084700
     75 H1'2         4.4050    -0.2800    -0.8670 h1         1 FAE       0.084700
     76 H2           1.7520     0.8870     0.1610 h1         1 FAE       0.042700
     77 HO2          1.8570    -1.4580     1.0170 ho         1 FAE       0.574000
     78 H3           2.2030    -1.6500    -1.4740 h1         1 FAE       0.086700
     79 HO3          0.7740     0.8130    -2.0010 ho         1 FAE       0.453000
     80 H4          -0.3680    -0.6610    -0.1570 h1         1 FAE      -0.000300
     81 HO4         -0.1020    -3.0430     0.6640 ho         1 FAE       0.620000
     82 H5'1        -0.7560    -1.5600    -2.4890 h1         1 FAE       0.037700
     83 H5'2         0.0110    -3.0750    -2.0190 h1         1 FAE       0.037700
     84 HN3          2.9060     6.4780    -0.4210 hn         1 FAE       0.334500
     85 H6           7.7180     2.9040     3.0490 ha         1 FAE       0.136000
@<TRIPOS>BOND
     1     1     2 1   
     2     1     3 1   
     3     1     4 1   
     4     1    23 1   
     5     4     5 1   
     6     5     6 1   
     7     5    54 1   
     8     5    55 1   
     9     6     7 1   
    10     6     8 1   
    11     6    56 1   
    12     7    12 1   
    13     8     9 1   
    14     8    10 1   
    15     8    57 1   
    16     9    58 1   
    17    10    11 1   
    18    10    12 1   
    19    10    59 1   
    20    11    60 1   
    21    12    13 1   
    22    12    61 1   
    23    13    14 2   
    24    13    22 1   
    25    14    15 1   
    26    14    62 1   
    27    15    16 1   
    28    15    63 1   
    29    16    17 ar  
    30    16    22 ar  
    31    17    18 1   
    32    17    19 ar  
    33    18    64 1   
    34    18    65 1   
    35    19    20 ar  
    36    20    21 ar  
    37    20    66 1   
    38    21    22 ar  
    39    23    51 1   
    40    24    25 1   
    41    24    41 2   
    42    25    26 2   
    43    25    27 1   
    44    27    28 1   
    45    27    84 1   
    46    28    29 2   
    47    28    30 1   
    48    30    31 2   
    49    30    41 1   
    50    31    32 1   
    51    32    33 ar  
    52    32    39 ar  
    53    33    34 ar  
    54    33    85 1   
    55    34    35 1   
    56    34    36 ar  
    57    35    67 1   
    58    35    68 1   
    59    35    69 1   
    60    36    37 1   
    61    36    38 ar  
    62    37    70 1   
    63    37    71 1   
    64    37    72 1   
    65    38    39 ar  
    66    38    73 1   
    67    39    40 1   
    68    40    41 1   
    69    40    42 1   
    70    42    43 1   
    71    42    74 1   
    72    42    75 1   
    73    43    44 1   
    74    43    45 1   
    75    43    76 1   
    76    44    77 1   
    77    45    46 1   
    78    45    47 1   
    79    45    78 1   
    80    46    79 1   
    81    47    48 1   
    82    47    49 1   
    83    47    80 1   
    84    48    81 1   
    85    49    50 1   
    86    49    82 1   
    87    49    83 1   
    88    50    51 1   
    89    51    52 1   
    90    51    53 1   
@<TRIPOS>SUBSTRUCTURE
     1 FAE         1 TEMP              0 ****  ****    0 ROOT
