@<TRIPOS>MOLECULE
FAF
   46    46     1     0     0
SMALL
bcc


@<TRIPOS>ATOM
      1 CX           1.0480     1.8950     2.6500 c          1 FAF       0.671100
      2 OX          -0.1330     2.2150     2.6410 o          1 FAF      -0.599100
      3 CAX          2.0960     2.7000     3.3740 c3         1 FAF      -0.177100
      4 NL           1.5000     0.8130     1.9950 ns         1 FAF      -0.562900
      5 CAL          0.6400    -0.0210     1.1940 c3         1 FAF       0.046700
      6 CBL         -0.2890    -0.9040     2.0360 c3         1 FAF      -0.089400
      7 CGL          0.4310    -1.7220     3.1090 c3         1 FAF      -0.058700
      8 CDL         -0.5920    -2.5000     3.9310 c3         1 FAF      -0.089600
      9 CDM          1.4640    -2.6720     2.5100 c3         1 FAF      -0.089600
     10 C           -0.0260     0.8250     0.1010 c          1 FAF       0.680100
     11 O            0.5790     1.7410    -0.4270 o          1 FAF      -0.595100
     12 N           -1.2510     0.4300    -0.2920 ns         1 FAF      -0.555900
     13 CA          -1.8890     0.9190    -1.4790 c3         1 FAF      -0.013300
     14 CB          -1.8350    -0.1170    -2.6240 c3         1 FAF      -0.044100
     15 CG          -0.4170    -0.5080    -2.9240 ca         1 FAF      -0.080300
     16 CD1          0.1610    -1.6100    -2.2980 ca         1 FAF      -0.118500
     17 CD2          0.3660     0.2570    -3.7840 ca         1 FAF      -0.118500
     18 CE1          1.4930    -1.9360    -2.5180 ca         1 FAF      -0.125500
     19 CE2          1.6950    -0.0680    -4.0120 ca         1 FAF      -0.125500
     20 CZ           2.2650    -1.1640    -3.3750 ca         1 FAF      -0.124000
     21 CW          -3.3210     1.3110    -1.2300 c          1 FAF       0.562900
     22 OW          -3.8850     1.2090    -0.1720 o          1 FAF      -0.495100
     23 HAX1         1.7050     3.0400     4.3310 hc         1 FAF       0.060033
     24 HAX2         3.0180     2.1490     3.5470 hc         1 FAF       0.060033
     25 HAX3         2.3390     3.5860     2.7850 hc         1 FAF       0.060033
     26 HL           2.4850     0.6100     2.0060 hn         1 FAF       0.319500
     27 HAL          1.3090    -0.6800     0.6320 h1         1 FAF       0.066700
     28 HBL1        -0.8000    -1.6140     1.3750 hc         1 FAF       0.056700
     29 HBL2        -1.0620    -0.2890     2.5030 hc         1 FAF       0.056700
     30 HGL          0.9480    -1.0300     3.7820 hc         1 FAF       0.053700
     31 HDL1        -0.1070    -3.0880     4.7110 hc         1 FAF       0.033033
     32 HDL2        -1.3070    -1.8310     4.4130 hc         1 FAF       0.033033
     33 HDL3        -1.1560    -3.1900     3.2990 hc         1 FAF       0.033033
     34 HDM1         0.9900    -3.3820     1.8270 hc         1 FAF       0.033033
     35 HDM2         2.2440    -2.1500     1.9540 hc         1 FAF       0.033033
     36 HDM3         1.9620    -3.2470     3.2920 hc         1 FAF       0.033033
     37 HN          -1.7210    -0.3040     0.2110 hn         1 FAF       0.324500
     38 HA          -1.3670     1.8220    -1.8100 h1         1 FAF       0.108700
     39 HB1         -2.4170    -0.9960    -2.3350 hc         1 FAF       0.053200
     40 HB2         -2.3120     0.3080    -3.5100 hc         1 FAF       0.053200
     41 HD1         -0.4390    -2.2230    -1.6350 ha         1 FAF       0.127000
     42 HD2         -0.0680     1.1180    -4.2810 ha         1 FAF       0.127000
     43 HE1          1.9250    -2.7960    -2.0220 ha         1 FAF       0.130000
     44 HE2          2.2890     0.5340    -4.6880 ha         1 FAF       0.130000
     45 HZ           3.3030    -1.4160    -3.5510 ha         1 FAF       0.130000
     46 HW          -3.8370     1.7000    -2.1250 h4         1 FAF      -0.009800
@<TRIPOS>BOND
     1     1     2 2   
     2     1     3 1   
     3     1     4 1   
     4     3    23 1   
     5     3    24 1   
     6     3    25 1   
     7     4     5 1   
     8     4    26 1   
     9     5     6 1   
    10     5    10 1   
    11     5    27 1   
    12     6     7 1   
    13     6    28 1   
    14     6    29 1   
    15     7     8 1   
    16     7     9 1   
    17     7    30 1   
    18     8    31 1   
    19     8    32 1   
    20     8    33 1   
    21     9    34 1   
    22     9    35 1   
    23     9    36 1   
    24    10    11 2   
    25    10    12 1   
    26    12    13 1   
    27    12    37 1   
    28    13    14 1   
    29    13    21 1   
    30    13    38 1   
    31    14    15 1   
    32    14    39 1   
    33    14    40 1   
    34    15    16 ar  
    35    15    17 ar  
    36    16    18 ar  
    37    16    41 1   
    38    17    19 ar  
    39    17    42 1   
    40    18    20 ar  
    41    18    43 1   
    42    19    20 ar  
    43    19    44 1   
    44    20    45 1   
    45    21    22 2   
    46    21    46 1   
@<TRIPOS>SUBSTRUCTURE
     1 FAF         1 TEMP              0 ****  ****    0 ROOT
