@<TRIPOS>MOLECULE
FAF
   46    46     1     0     0
SMALL
No Charge or Current Charge


@<TRIPOS>ATOM
      1 CX           1.5330     1.6700     2.5620 c          1 FAF       0.604100
      2 OX           0.4650     2.1860     2.8560 o          1 FAF      -0.599100
      3 CAX          2.8670     2.2440     3.0190 c3         1 FAF      -0.177100
      4 NL           1.6350     0.5280     1.7960 ns         1 FAF      -0.495900
      5 CAL          0.4970    -0.2360     1.2230 c3         1 FAF       0.046700
      6 CBL         -0.4920    -0.7800     2.3030 c3         1 FAF      -0.089400
      7 CGL          0.1620    -1.5120     3.5110 c3         1 FAF      -0.058700
      8 CDL         -0.9050    -1.9090     4.5560 c3         1 FAF      -0.089600
      9 CDM          0.9940    -2.7430     3.0810 c3         1 FAF      -0.089600
     10 C           -0.1990     0.5520     0.0620 c          1 FAF       0.613100
     11 O            0.2460     1.5960    -0.4050 o          1 FAF      -0.595100
     12 N           -1.3670    -0.0100    -0.4210 ns         1 FAF      -0.488900
     13 CA          -2.1330     0.4840    -1.5930 c3         1 FAF      -0.013300
     14 CB          -1.7680    -0.2930    -2.8830 c3         1 FAF      -0.044100
     15 CG          -0.2700    -0.3120    -3.1700 ca         1 FAF      -0.080300
     16 CD1          0.5140    -1.4220    -2.7940 ca         1 FAF      -0.100500
     17 CD2          0.3450     0.7860    -3.8020 ca         1 FAF      -0.100500
     18 CE1          1.8970    -1.4320    -3.0450 ca         1 FAF      -0.107500
     19 CE2          1.7280     0.7750    -4.0540 ca         1 FAF      -0.107500
     20 CZ           2.5050    -0.3330    -3.6750 ca         1 FAF      -0.106000
     21 CW          -3.6590     0.4400    -1.3260 c          1 FAF       0.562900
     22 OW          -4.1710    -0.1060    -0.3520 o          1 FAF      -0.495100
     23 HAX1         2.7520     3.1500     3.6260 hc         1 FAF       0.060033
     24 HAX2         3.4260     1.4680     3.5530 hc         1 FAF       0.060033
     25 HAX3         3.4980     2.4230     2.1410 hc         1 FAF       0.060033
     26 HL           2.5750     0.2030     1.6030 hn         1 FAF       0.319500
     27 HAL          0.9320    -1.1130     0.7280 h1         1 FAF       0.066700
     28 HBL1        -1.1970    -1.4740     1.8280 hc         1 FAF       0.056700
     29 HBL2        -1.0960     0.0540     2.6800 hc         1 FAF       0.056700
     30 HGL          0.8440    -0.8110     4.0090 hc         1 FAF       0.053700
     31 HDL1        -0.4360    -2.3760     5.4310 hc         1 FAF       0.033033
     32 HDL2        -1.4570    -1.0270     4.9020 hc         1 FAF       0.033033
     33 HDL3        -1.6240    -2.6200     4.1320 hc         1 FAF       0.033033
     34 HDM1         0.3730    -3.4650     2.5370 hc         1 FAF       0.033033
     35 HDM2         1.8310    -2.4510     2.4360 hc         1 FAF       0.033033
     36 HDM3         1.4150    -3.2490     3.9590 hc         1 FAF       0.033033
     37 HN          -1.6870    -0.8560     0.0360 hn         1 FAF       0.324500
     38 HA          -1.8930     1.5430    -1.7560 h1         1 FAF       0.108700
     39 HB1         -2.1430    -1.3210    -2.7980 hc         1 FAF       0.053200
     40 HB2         -2.3020     0.1510    -3.7330 hc         1 FAF       0.053200
     41 HD1          0.0520    -2.2760    -2.3030 ha         1 FAF       0.109000
     42 HD2         -0.2470     1.6500    -4.0930 ha         1 FAF       0.109000
     43 HE1          2.4970    -2.2900    -2.7510 ha         1 FAF       0.112000
     44 HE2          2.1980     1.6270    -4.5410 ha         1 FAF       0.112000
     45 HZ           3.5750    -0.3400    -3.8690 ha         1 FAF       0.112000
     46 HW          -4.2870     0.9490    -2.0890 h4         1 FAF      -0.009800
@<TRIPOS>BOND
     1     1     2 2   
     2     1     3 1   
     3     1     4 1   
     4     3    23 1   
     5     3    24 1   
     6     3    25 1   
     7     4     5 1   
     8     4    26 1   
     9     5     6 1   
    10     5    10 1   
    11     5    27 1   
    12     6     7 1   
    13     6    28 1   
    14     6    29 1   
    15     7     8 1   
    16     7     9 1   
    17     7    30 1   
    18     8    31 1   
    19     8    32 1   
    20     8    33 1   
    21     9    34 1   
    22     9    35 1   
    23     9    36 1   
    24    10    11 2   
    25    10    12 1   
    26    12    13 1   
    27    12    37 1   
    28    13    14 1   
    29    13    21 1   
    30    13    38 1   
    31    14    15 1   
    32    14    39 1   
    33    14    40 1   
    34    15    16 ar  
    35    15    17 ar  
    36    16    18 ar  
    37    16    41 1   
    38    17    19 ar  
    39    17    42 1   
    40    18    20 ar  
    41    18    43 1   
    42    19    20 ar  
    43    19    44 1   
    44    20    45 1   
    45    21    22 2   
    46    21    46 1   
@<TRIPOS>SUBSTRUCTURE
     1 FAF         1 TEMP              0 ****  ****    0 ROOT
