@<TRIPOS>MOLECULE
FAH
    7     6     1     0     0
SMALL
bcc


@<TRIPOS>ATOM
      1 C            0.6170     0.0870     0.0320 c          1 FAH       0.913600
      2 F           -1.8150     0.0350     0.0650 f          1 FAH      -0.282300
      3 O            0.5090     1.3210     0.0530 o          1 FAH      -0.832300
      4 CH3         -0.6660    -0.7510     0.0410 c3         1 FAH       0.013900
      5 OXT          1.6590    -0.5980     0.0050 o          1 FAH      -0.832300
      6 HH3         -0.7050    -1.3860    -0.8490 h1         1 FAH       0.009700
      7 HH3A        -0.6820    -1.4030     0.9180 h1         1 FAH       0.009700
@<TRIPOS>BOND
     1     1     3 1   
     2     1     4 1   
     3     1     5 1   
     4     2     4 1   
     5     4     6 1   
     6     4     7 1   
@<TRIPOS>SUBSTRUCTURE
     1 FAH         1 TEMP              0 ****  ****    0 ROOT
