@<TRIPOS>MOLECULE
FAH
    7     6     1     0     0
SMALL
No Charge or Current Charge


@<TRIPOS>ATOM
      1 C            0.6230     0.0720     0.0150 c          1 FAH       0.703000
      2 F           -1.6880    -0.2360    -0.7030 f          1 FAH      -0.301000
      3 O            0.7830     0.9930     0.8070 o          1 FAH      -0.727000
      4 CH3         -0.6990    -0.7460     0.0850 c3         1 FAH       0.032600
      5 OXT          1.4550    -0.2340    -0.8310 o          1 FAH      -0.727000
      6 HH3         -0.5010    -1.7790    -0.2310 h1         1 FAH       0.009700
      7 HH3A        -1.0570    -0.7650     1.1230 h1         1 FAH       0.009700
@<TRIPOS>BOND
     1     1     3 1   
     2     1     4 1   
     3     1     5 1   
     4     2     4 1   
     5     4     6 1   
     6     4     7 1   
@<TRIPOS>SUBSTRUCTURE
     1 FAH         1 TEMP              0 ****  ****    0 ROOT
