@<TRIPOS>MOLECULE
FAJ
  104   111     1     0     0
SMALL
abcg2


@<TRIPOS>ATOM
      1 O1          69.4600    55.4620    34.3350 o          1 FAJ      -0.546000
      2 O2          67.6580    56.7600    30.4100 o          1 FAJ      -0.493000
      3 C1          68.7100    56.1690    33.6990 c          1 FAJ       0.586000
      4 N1          68.6460    56.1600    32.3470 ns         1 FAJ      -0.495500
      5 C2          67.8230    56.9990    31.5850 c          1 FAJ       0.737400
      6 N2          67.3430    58.1220    32.1910 ne         1 FAJ      -0.743100
      7 C3          67.4430    58.2670    33.4730 c2         1 FAJ       0.712200
      8 C4          67.6790    57.0810    34.3580 c5         1 FAJ       0.054900
      9 C5          66.3170    56.2880    34.5330 c5         1 FAJ      -0.023400
     10 C6          65.7310    55.5900    33.3420 ca         1 FAJ      -0.099300
     11 C7          66.1540    54.3290    32.9230 ca         1 FAJ      -0.091000
     12 C8          65.5990    53.7350    31.7990 ca         1 FAJ      -0.105000
     13 C9          64.6060    54.3880    31.0810 ca         1 FAJ      -0.093000
     14 C10         64.1680    55.6370    31.4960 ca         1 FAJ      -0.105000
     15 C11         64.7290    56.2310    32.6170 ca         1 FAJ      -0.091000
     16 C12         66.6480    55.4410    35.7550 c5         1 FAJ      -0.124400
     17 C13         67.5390    56.3360    36.6270 c5         1 FAJ       0.454500
     18 O3          68.5520    55.6600    37.3000 oh         1 FAJ      -0.652000
     19 N3          68.0300    57.3740    35.7160 nh         1 FAJ      -0.826400
     20 C14         68.0670    58.6900    36.1600 ca         1 FAJ       0.265000
     21 C15         68.5170    58.9770    37.4460 ca         1 FAJ      -0.129000
     22 C16         68.5180    60.2670    37.9590 ca         1 FAJ      -0.069300
     23 C17         68.9960    60.5230    39.3580 c3         1 FAJ      -0.041800
     24 C18         68.0850    61.3170    37.1440 ca         1 FAJ      -0.073300
     25 C19         68.0980    62.7320    37.6410 c3         1 FAJ      -0.046800
     26 C20         67.6600    61.0360    35.8520 ca         1 FAJ      -0.084000
     27 C21         67.6290    59.7390    35.3500 ca         1 FAJ       0.235000
     28 N4          67.2030    59.4590    34.0280 nh         1 FAJ      -0.718400
     29 C22         66.6230    60.5050    33.1850 c3         1 FAJ       0.196800
     30 C23         67.6430    61.2110    32.2790 c3         1 FAJ       0.145300
     31 O4          68.8450    61.4920    32.9690 oh         1 FAJ      -0.721000
     32 C24         67.0610    62.5240    31.7510 c3         1 FAJ       0.128300
     33 O5          65.8610    62.1710    31.0970 oh         1 FAJ      -0.674000
     34 C25         68.0370    63.2500    30.8030 c3         1 FAJ       0.145300
     35 O6          69.1200    63.7990    31.5170 oh         1 FAJ      -0.661000
     36 C26         67.3420    64.3850    30.0710 c3         1 FAJ       0.244600
     37 O7          68.2780    65.0260    29.2360 os         1 FAJ      -0.575400
     38 P1          67.7950    66.1220    28.1150 p5         1 FAJ       1.463800
     39 O8          69.0600    66.6950    27.5630 o          1 FAJ      -0.845000
     40 O9          66.7400    65.5390    27.2290 o          1 FAJ      -0.845000
     41 O10         66.9860    67.2200    29.0440 os         1 FAJ      -0.727800
     42 P2          67.5770    68.3030    30.1320 p5         1 FAJ       1.459800
     43 O11         66.3710    68.8040    30.8650 o          1 FAJ      -0.846500
     44 O12         68.7800    67.7690    30.8370 o          1 FAJ      -0.846500
     45 O13         68.1640    69.4910    29.1590 os         1 FAJ      -0.584400
     46 C27         67.3230    70.3090    28.3820 c3         1 FAJ       0.229600
     47 C28         67.6480    71.7610    28.7130 c5         1 FAJ       0.140300
     48 O14         67.0370    72.6300    27.7500 os         1 FAJ      -0.467000
     49 C29         67.1210    72.2060    30.0720 c5         1 FAJ       0.113300
     50 O15         67.9530    73.2270    30.5670 oh         1 FAJ      -0.720000
     51 C30         65.7460    72.7630    29.6880 c5         1 FAJ       0.077300
     52 O16         65.2210    73.7010    30.5830 oh         1 FAJ      -0.724000
     53 C31         66.0700    73.4390    28.3590 c5         1 FAJ       0.309300
     54 N5          64.9440    73.5840    27.4730 na         1 FAJ      -0.271300
     55 C32         64.2040    72.5830    26.9010 cc         1 FAJ       0.442700
     56 N6          63.2830    73.0180    26.0950 nd         1 FAJ      -0.583100
     57 C33         63.4160    74.3830    26.1290 ca         1 FAJ      -0.093600
     58 C34         64.4470    74.7570    26.9770 ca         1 FAJ       0.129500
     59 N7          64.8460    76.0000    27.2360 nb         1 FAJ      -0.200000
     60 C35         64.1270    76.8920    26.5740 ca         1 FAJ       0.157900
     61 N8          63.1150    76.6830    25.7370 nb         1 FAJ      -0.322000
     62 C36         62.7260    75.4270    25.4860 ca         1 FAJ       0.438900
     63 N9          61.7070    75.2130    24.6530 nv         1 FAJ      -1.079900
     64 H1          69.1750    55.4560    31.8470 hn         1 FAJ       0.333500
     65 H4          65.6110    57.0650    34.8440 hc         1 FAJ       0.069700
     66 H5          66.9230    53.7960    33.4680 ha         1 FAJ       0.115000
     67 H6          65.9420    52.7570    31.4860 ha         1 FAJ       0.115500
     68 H7          64.1720    53.9200    30.2070 ha         1 FAJ       0.112000
     69 H8          63.3890    56.1520    30.9470 ha         1 FAJ       0.115500
     70 H9          64.3830    57.2080    32.9350 ha         1 FAJ       0.115000
     71 H10         65.7430    55.1500    36.2870 hc         1 FAJ       0.065200
     72 H11         67.1730    54.5230    35.4880 hc         1 FAJ       0.065200
     73 H12         66.9420    56.8150    37.4070 h2         1 FAJ       0.076700
     74 H13         69.1340    55.2680    36.6360 ho         1 FAJ       0.473000
     75 H14         68.8820    58.1660    38.0620 ha         1 FAJ       0.128000
     76 H15         68.2120    60.9730    39.9710 hc         1 FAJ       0.039700
     77 H16         69.3100    59.6010    39.8450 hc         1 FAJ       0.039700
     78 H17         69.8410    61.2140    39.3740 hc         1 FAJ       0.039700
     79 H18         67.4840    62.8490    38.5370 hc         1 FAJ       0.046700
     80 H19         69.1070    63.0550    37.9080 hc         1 FAJ       0.046700
     81 H20         67.7200    63.4220    36.8880 hc         1 FAJ       0.046700
     82 H21         67.3560    61.8680    35.2360 ha         1 FAJ       0.146000
     83 H22         66.1210    61.2150    33.8410 h1         1 FAJ       0.075200
     84 H23         65.8530    60.0420    32.5740 h1         1 FAJ       0.075200
     85 H24         67.8480    60.5620    31.4200 h1         1 FAJ       0.077700
     86 H25         69.4370    60.7370    32.8980 ho         1 FAJ       0.506000
     87 H26         66.8610    63.1910    32.6030 h1         1 FAJ       0.044700
     88 H27         65.2420    62.9030    31.1630 ho         1 FAJ       0.460000
     89 H28         68.3870    62.5230    30.0490 h1         1 FAJ       0.034700
     90 H29         69.4470    63.0990    32.0980 ho         1 FAJ       0.477000
     91 H30         66.9300    65.0900    30.8060 h1         1 FAJ       0.019700
     92 H31         66.5060    63.9850    29.4910 h1         1 FAJ       0.019700
     93 H34         67.5140    70.1300    27.3190 h1         1 FAJ       0.030200
     94 H35         66.2610    70.1000    28.5580 h1         1 FAJ       0.030200
     95 H36         68.7330    71.8930    28.6570 h1         1 FAJ       0.102700
     96 H37         67.0430    71.3700    30.7750 h1         1 FAJ       0.121700
     97 H38         67.4570    73.7060    31.2410 ho         1 FAJ       0.499000
     98 H39         65.0520    71.9300    29.5260 h1         1 FAJ       0.076700
     99 H40         64.7370    73.2360    31.2740 ho         1 FAJ       0.514000
    100 H41         66.4430    74.4530    28.5420 h2         1 FAJ       0.099700
    101 H42         64.3960    71.5420    27.1180 h5         1 FAJ       0.092800
    102 H43         64.3940    77.9310    26.7310 h5         1 FAJ       0.031100
    103 H44         61.2480    75.9860    24.2030 hn         1 FAJ       0.498500
    104 H45         61.4010    74.2810    24.4340 hn         1 FAJ       0.498500
@<TRIPOS>BOND
     1     1     3 2   
     2     2     5 2   
     3     3     4 1   
     4     3     8 1   
     5     4     5 1   
     6     4    64 1   
     7     5     6 1   
     8     6     7 2   
     9     7     8 1   
    10     7    28 1   
    11     8     9 1   
    12     8    19 1   
    13     9    10 1   
    14     9    16 1   
    15     9    65 1   
    16    10    11 ar  
    17    10    15 ar  
    18    11    12 ar  
    19    11    66 1   
    20    12    13 ar  
    21    12    67 1   
    22    13    14 ar  
    23    13    68 1   
    24    14    15 ar  
    25    14    69 1   
    26    15    70 1   
    27    16    17 1   
    28    16    71 1   
    29    16    72 1   
    30    17    18 1   
    31    17    19 1   
    32    17    73 1   
    33    18    74 1   
    34    19    20 1   
    35    20    21 ar  
    36    20    27 ar  
    37    21    22 ar  
    38    21    75 1   
    39    22    23 1   
    40    22    24 ar  
    41    23    76 1   
    42    23    77 1   
    43    23    78 1   
    44    24    25 1   
    45    24    26 ar  
    46    25    79 1   
    47    25    80 1   
    48    25    81 1   
    49    26    27 ar  
    50    26    82 1   
    51    27    28 1   
    52    28    29 1   
    53    29    30 1   
    54    29    83 1   
    55    29    84 1   
    56    30    31 1   
    57    30    32 1   
    58    30    85 1   
    59    31    86 1   
    60    32    33 1   
    61    32    34 1   
    62    32    87 1   
    63    33    88 1   
    64    34    35 1   
    65    34    36 1   
    66    34    89 1   
    67    35    90 1   
    68    36    37 1   
    69    36    91 1   
    70    36    92 1   
    71    37    38 1   
    72    38    39 1   
    73    38    40 1   
    74    38    41 1   
    75    41    42 1   
    76    42    43 1   
    77    42    44 1   
    78    42    45 1   
    79    45    46 1   
    80    46    47 1   
    81    46    93 1   
    82    46    94 1   
    83    47    48 1   
    84    47    49 1   
    85    47    95 1   
    86    48    53 1   
    87    49    50 1   
    88    49    51 1   
    89    49    96 1   
    90    50    97 1   
    91    51    52 1   
    92    51    53 1   
    93    51    98 1   
    94    52    99 1   
    95    53    54 1   
    96    53   100 1   
    97    54    55 1   
    98    54    58 1   
    99    55    56 2   
   100    55   101 1   
   101    56    57 1   
   102    57    58 ar  
   103    57    62 ar  
   104    58    59 ar  
   105    59    60 ar  
   106    60    61 ar  
   107    60   102 1   
   108    61    62 ar  
   109    62    63 1   
   110    63   103 1   
   111    63   104 1   
@<TRIPOS>SUBSTRUCTURE
     1 FAJ         1 TEMP              0 ****  ****    0 ROOT
