@<TRIPOS>MOLECULE
FAJ
  104   111     1     0     0
SMALL
No Charge or Current Charge


@<TRIPOS>ATOM
      1 O1          70.0740    55.3610    34.2120 o          1 FAJ      -0.546000
      2 O2          68.7120    56.9870    30.2590 o          1 FAJ      -0.493000
      3 C1          69.2720    56.0880    33.6380 c          1 FAJ       0.586000
      4 N1          69.2950    56.2200    32.2830 ns         1 FAJ      -0.495500
      5 C2          68.6820    57.1130    31.4660 c          1 FAJ       0.737400
      6 N2          68.1200    58.1930    32.1180 ne         1 FAJ      -0.743100
      7 C3          67.8460    58.1560    33.3740 c2         1 FAJ       0.712200
      8 C4          68.1290    56.9350    34.2820 c5         1 FAJ       0.054900
      9 C5          66.8160    56.1390    34.5620 c5         1 FAJ      -0.023400
     10 C6          66.3630    55.3660    33.3070 ca         1 FAJ      -0.099300
     11 C7          66.9160    54.1290    32.8890 ca         1 FAJ      -0.091000
     12 C8          66.4650    53.5000    31.7160 ca         1 FAJ      -0.105000
     13 C9          65.4560    54.0900    30.9400 ca         1 FAJ      -0.093000
     14 C10         64.9000    55.3140    31.3390 ca         1 FAJ      -0.105000
     15 C11         65.3500    55.9430    32.5110 ca         1 FAJ      -0.091000
     16 C12         67.2410    55.2160    35.7450 c5         1 FAJ      -0.124400
     17 C13         68.1140    56.1670    36.6260 c5         1 FAJ       0.454500
     18 O3          69.3130    55.5600    36.9930 oh         1 FAJ      -0.652000
     19 N3          68.4950    57.2600    35.7230 nh         1 FAJ      -0.826400
     20 C14         68.4630    58.6060    36.1640 ca         1 FAJ       0.265000
     21 C15         68.9810    58.9420    37.4270 ca         1 FAJ      -0.129000
     22 C16         68.9560    60.2660    37.8970 ca         1 FAJ      -0.069300
     23 C17         69.5320    60.5830    39.2750 c3         1 FAJ      -0.041800
     24 C18         68.4060    61.2780    37.0820 ca         1 FAJ      -0.073300
     25 C19         68.3700    62.7320    37.5470 c3         1 FAJ      -0.046800
     26 C20         67.8880    60.9470    35.8140 ca         1 FAJ      -0.084000
     27 C21         67.8950    59.6170    35.3350 ca         1 FAJ       0.235000
     28 N4          67.3730    59.2920    34.0360 nh         1 FAJ      -0.718400
     29 C22         66.3340    60.1510    33.3880 c3         1 FAJ       0.196800
     30 C23         66.8410    61.0720    32.2360 c3         1 FAJ       0.145300
     31 O4          68.1750    61.5260    32.5520 oh         1 FAJ      -0.721000
     32 C24         65.8820    62.2760    31.9490 c3         1 FAJ       0.128300
     33 O5          64.5590    61.7650    31.6860 oh         1 FAJ      -0.674000
     34 C25         66.3610    63.1740    30.7560 c3         1 FAJ       0.145300
     35 O6          67.6950    63.6480    31.0310 oh         1 FAJ      -0.661000
     36 C26         65.4000    64.3720    30.4690 c3         1 FAJ       0.244600
     37 O7          65.8240    65.0620    29.2840 os         1 FAJ      -0.575400
     38 P1          65.0200    66.3860    28.8450 p5         1 FAJ       1.463800
     39 O8          65.2800    66.7540    27.4220 o          1 FAJ      -0.845000
     40 O9          63.5530    66.2000    29.0570 o          1 FAJ      -0.845000
     41 O10         65.5870    67.4000    29.9110 os         1 FAJ      -0.727800
     42 P2          66.9170    68.1680    29.5570 p5         1 FAJ       1.459800
     43 O11         67.5280    68.7090    30.8070 o          1 FAJ      -0.846500
     44 O12         67.9230    67.3660    28.8010 o          1 FAJ      -0.846500
     45 O13         66.2920    69.3590    28.6650 os         1 FAJ      -0.584400
     46 C27         65.6260    70.4690    29.2880 c3         1 FAJ       0.229600
     47 C28         66.6610    71.5600    29.7230 c5         1 FAJ       0.140300
     48 O14         66.8960    72.4830    28.6220 os         1 FAJ      -0.467000
     49 C29         66.1530    72.4780    30.8840 c5         1 FAJ       0.113300
     50 O15         67.1960    73.2420    31.5100 oh         1 FAJ      -0.720000
     51 C30         65.2080    73.4230    30.0900 c5         1 FAJ       0.077300
     52 O16         64.9300    74.6250    30.8420 oh         1 FAJ      -0.724000
     53 C31         66.0640    73.6580    28.7890 c5         1 FAJ       0.309300
     54 N5          65.3610    73.9390    27.5370 na         1 FAJ      -0.271300
     55 C32         64.1010    73.4540    27.1620 cc         1 FAJ       0.442700
     56 N6          63.7250    73.9360    25.9610 nd         1 FAJ      -0.583100
     57 C33         64.8010    74.7460    25.5880 ca         1 FAJ      -0.093600
     58 C34         65.7990    74.7540    26.5310 ca         1 FAJ       0.129500
     59 N7          66.9320    75.4680    26.3730 nb         1 FAJ      -0.200000
     60 C35         67.0250    76.1740    25.2210 ca         1 FAJ       0.157900
     61 N8          66.1040    76.2330    24.2290 nb         1 FAJ      -0.322000
     62 C36         64.9860    75.5160    24.4190 ca         1 FAJ       0.438900
     63 N9          64.0630    75.5740    23.4220 nv         1 FAJ      -1.079900
     64 H1          69.8790    55.5550    31.8020 hn         1 FAJ       0.333500
     65 H4          66.0280    56.8230    34.9040 hc         1 FAJ       0.069700
     66 H5          67.7110    53.6450    33.4470 ha         1 FAJ       0.115000
     67 H6          66.9020    52.5540    31.4060 ha         1 FAJ       0.115500
     68 H7          65.1100    53.6030    30.0310 ha         1 FAJ       0.112000
     69 H8          64.1190    55.7770    30.7390 ha         1 FAJ       0.115500
     70 H9          64.9080    56.8940    32.8000 ha         1 FAJ       0.115000
     71 H10         66.3760    54.8370    36.2990 hc         1 FAJ       0.065200
     72 H11         67.8220    54.3420    35.4420 hc         1 FAJ       0.065200
     73 H12         67.5560    56.5240    37.5050 h2         1 FAJ       0.076700
     74 H13         69.8130    55.6280    36.1490 ho         1 FAJ       0.473000
     75 H14         69.4170    58.1630    38.0460 ha         1 FAJ       0.128000
     76 H15         68.7710    61.0220    39.9300 hc         1 FAJ       0.039700
     77 H16         69.9120    59.6840    39.7740 hc         1 FAJ       0.039700
     78 H17         70.3660    61.2910    39.2010 hc         1 FAJ       0.039700
     79 H18         67.7900    62.8370    38.4710 hc         1 FAJ       0.046700
     80 H19         69.3810    63.1110    37.7380 hc         1 FAJ       0.046700
     81 H20         67.9130    63.3910    36.7990 hc         1 FAJ       0.046700
     82 H21         67.4900    61.7450    35.1970 ha         1 FAJ       0.146000
     83 H22         65.8430    60.7790    34.1430 h1         1 FAJ       0.075200
     84 H23         65.5330    59.5120    32.9920 h1         1 FAJ       0.075200
     85 H24         66.8780    60.4590    31.3250 h1         1 FAJ       0.077700
     86 H25         68.5850    60.7520    33.0090 ho         1 FAJ       0.506000
     87 H26         65.8550    62.9020    32.8520 h1         1 FAJ       0.044700
     88 H27         63.9080    62.3960    32.0670 ho         1 FAJ       0.460000
     89 H28         66.3810    62.5410    29.8580 h1         1 FAJ       0.034700
     90 H29         68.0950    62.9340    31.6020 ho         1 FAJ       0.477000
     91 H30         65.3930    65.0480    31.3350 h1         1 FAJ       0.019700
     92 H31         64.3810    63.9890    30.3320 h1         1 FAJ       0.019700
     93 H34         64.8930    70.9060    28.5980 h1         1 FAJ       0.030200
     94 H35         65.0740    70.1270    30.1740 h1         1 FAJ       0.030200
     95 H36         67.6080    71.0780    29.9970 h1         1 FAJ       0.102700
     96 H37         65.5940    71.8980    31.6350 h1         1 FAJ       0.121700
     97 H38         66.7660    74.1170    31.6800 ho         1 FAJ       0.499000
     98 H39         64.2720    72.8960    29.8580 h1         1 FAJ       0.076700
     99 H40         64.2090    75.1160    30.3770 ho         1 FAJ       0.514000
    100 H41         66.7230    74.5200    28.9570 h2         1 FAJ       0.099700
    101 H42         63.5260    72.7750    27.7810 h5         1 FAJ       0.092800
    102 H43         67.9350    76.7540    25.0780 h5         1 FAJ       0.031100
    103 H44         64.3710    75.8900    22.5070 hn         1 FAJ       0.498500
    104 H45         63.3210    74.8780    23.4410 hn         1 FAJ       0.498500
@<TRIPOS>BOND
     1     1     3 2   
     2     2     5 2   
     3     3     4 1   
     4     3     8 1   
     5     4     5 1   
     6     4    64 1   
     7     5     6 1   
     8     6     7 2   
     9     7     8 1   
    10     7    28 1   
    11     8     9 1   
    12     8    19 1   
    13     9    10 1   
    14     9    16 1   
    15     9    65 1   
    16    10    11 ar  
    17    10    15 ar  
    18    11    12 ar  
    19    11    66 1   
    20    12    13 ar  
    21    12    67 1   
    22    13    14 ar  
    23    13    68 1   
    24    14    15 ar  
    25    14    69 1   
    26    15    70 1   
    27    16    17 1   
    28    16    71 1   
    29    16    72 1   
    30    17    18 1   
    31    17    19 1   
    32    17    73 1   
    33    18    74 1   
    34    19    20 1   
    35    20    21 ar  
    36    20    27 ar  
    37    21    22 ar  
    38    21    75 1   
    39    22    23 1   
    40    22    24 ar  
    41    23    76 1   
    42    23    77 1   
    43    23    78 1   
    44    24    25 1   
    45    24    26 ar  
    46    25    79 1   
    47    25    80 1   
    48    25    81 1   
    49    26    27 ar  
    50    26    82 1   
    51    27    28 1   
    52    28    29 1   
    53    29    30 1   
    54    29    83 1   
    55    29    84 1   
    56    30    31 1   
    57    30    32 1   
    58    30    85 1   
    59    31    86 1   
    60    32    33 1   
    61    32    34 1   
    62    32    87 1   
    63    33    88 1   
    64    34    35 1   
    65    34    36 1   
    66    34    89 1   
    67    35    90 1   
    68    36    37 1   
    69    36    91 1   
    70    36    92 1   
    71    37    38 1   
    72    38    39 1   
    73    38    40 1   
    74    38    41 1   
    75    41    42 1   
    76    42    43 1   
    77    42    44 1   
    78    42    45 1   
    79    45    46 1   
    80    46    47 1   
    81    46    93 1   
    82    46    94 1   
    83    47    48 1   
    84    47    49 1   
    85    47    95 1   
    86    48    53 1   
    87    49    50 1   
    88    49    51 1   
    89    49    96 1   
    90    50    97 1   
    91    51    52 1   
    92    51    53 1   
    93    51    98 1   
    94    52    99 1   
    95    53    54 1   
    96    53   100 1   
    97    54    55 1   
    98    54    58 1   
    99    55    56 2   
   100    55   101 1   
   101    56    57 1   
   102    57    58 ar  
   103    57    62 ar  
   104    58    59 ar  
   105    59    60 ar  
   106    60    61 ar  
   107    60   102 1   
   108    61    62 ar  
   109    62    63 1   
   110    63   103 1   
   111    63   104 1   
@<TRIPOS>SUBSTRUCTURE
     1 FAJ         1 TEMP              0 ****  ****    0 ROOT
