@<TRIPOS>MOLECULE
FAK
   28    27     1     0     0
SMALL
bcc


@<TRIPOS>ATOM
      1 N          -17.9970    79.8390    83.2840 n8         1 FAK      -0.891800
      2 CA         -18.2280    81.2750    83.1370 c3         1 FAK       0.014500
      3 C          -18.2590    82.0500    84.4770 c          1 FAK       0.898600
      4 O          -18.8430    81.4810    85.4240 o          1 FAK      -0.838800
      5 CB         -19.5480    81.4770    82.3880 c3         1 FAK      -0.045400
      6 CG         -19.8620    82.9200    82.0180 c3         1 FAK      -0.070400
      7 CD         -21.1630    83.0440    81.2370 c3         1 FAK      -0.095400
      8 CE         -21.4580    84.4860    80.8640 c3         1 FAK       0.095000
      9 NZ         -22.7370    84.5870    80.1790 ns         1 FAK      -0.545900
     10 CH         -23.2320    85.7570    79.7940 c          1 FAK       0.615100
     11 OH         -22.6940    86.8380    79.9280 o          1 FAK      -0.553100
     12 CT         -24.6370    85.7150    79.1690 c3         1 FAK       0.570900
     13 FI1        -24.7240    86.5900    78.1730 f          1 FAK      -0.231300
     14 FI2        -25.5460    86.0530    80.0880 f          1 FAK      -0.231300
     15 FI3        -24.9740    84.5140    78.6930 f          1 FAK      -0.231300
     16 OXT        -17.7340    83.1820    84.4970 o          1 FAK      -0.838800
     17 H1         -17.0660    79.6940    83.6570 hn         1 FAK       0.327800
     18 H2         -18.6170    79.5120    84.0180 hn         1 FAK       0.327800
     19 H4         -17.4220    81.6800    82.5150 h1         1 FAK       0.037700
     20 H6         -20.3650    81.0720    82.9970 hc         1 FAK       0.024200
     21 H7         -19.0380    83.3310    81.4250 hc         1 FAK       0.056700
     22 H8         -21.9880    82.6470    81.8370 hc         1 FAK       0.035700
     23 H9         -20.6660    84.8770    80.2200 h1         1 FAK       0.061200
     24 H10        -23.2470    83.7340    80.0110 hn         1 FAK       0.331500
     25 H3         -19.5190    80.8720    81.4770 hc         1 FAK       0.024200
     26 H5         -19.9260    83.5370    82.9170 hc         1 FAK       0.056700
     27 H11        -21.1140    82.4350    80.3280 hc         1 FAK       0.035700
     28 H12        -21.4780    85.1080    81.7620 h1         1 FAK       0.061200
@<TRIPOS>BOND
     1     1     2 1   
     2     1    17 1   
     3     1    18 1   
     4     2     3 1   
     5     2     5 1   
     6     2    19 1   
     7     3     4 1   
     8     3    16 1   
     9     5     6 1   
    10     5    20 1   
    11     5    25 1   
    12     6     7 1   
    13     6    21 1   
    14     6    26 1   
    15     7     8 1   
    16     7    22 1   
    17     7    27 1   
    18     8     9 1   
    19     8    23 1   
    20     8    28 1   
    21     9    10 1   
    22     9    24 1   
    23    10    11 2   
    24    10    12 1   
    25    12    13 1   
    26    12    14 1   
    27    12    15 1   
@<TRIPOS>SUBSTRUCTURE
     1 FAK         1 TEMP              0 ****  ****    0 ROOT
