@<TRIPOS>MOLECULE
FAK
   28    27     1     0     0
SMALL
No Charge or Current Charge


@<TRIPOS>ATOM
      1 N          -17.9310    79.7380    83.2810 n8         1 FAK      -0.891800
      2 CA         -18.2090    81.2190    83.1500 c3         1 FAK       0.014500
      3 C          -18.0930    82.0860    84.4800 c          1 FAK       0.898600
      4 O          -18.7430    81.7480    85.4650 o          1 FAK      -0.838800
      5 CB         -19.5780    81.4280    82.4450 c3         1 FAK      -0.045400
      6 CG         -19.8780    82.8990    82.0680 c3         1 FAK      -0.070400
      7 CD         -21.2160    83.0670    81.3140 c3         1 FAK      -0.095400
      8 CE         -21.5130    84.5310    80.9370 c3         1 FAK       0.095000
      9 NZ         -22.7860    84.6530    80.2240 ns         1 FAK      -0.545900
     10 CH         -23.3020    85.8490    79.7320 c          1 FAK       0.615100
     11 OH         -22.6780    86.8990    79.8900 o          1 FAK      -0.553100
     12 CT         -24.6950    85.7590    78.9950 c3         1 FAK       0.570900
     13 FI1        -24.9490    86.8520    78.2270 f          1 FAK      -0.231300
     14 FI2        -25.7220    85.6500    79.8770 f          1 FAK      -0.231300
     15 FI3        -24.7660    84.6790    78.1740 f          1 FAK      -0.231300
     16 OXT        -17.2600    82.9860    84.5230 o          1 FAK      -0.838800
     17 H1         -16.9930    79.6050    83.6740 hn         1 FAK       0.327800
     18 H2         -18.5560    79.3510    83.9980 hn         1 FAK       0.327800
     19 H4         -17.4410    81.6080    82.4680 h1         1 FAK       0.037700
     20 H6         -20.3800    81.0550    83.0940 hc         1 FAK       0.024200
     21 H7         -19.0620    83.2830    81.4420 hc         1 FAK       0.056700
     22 H8         -22.0320    82.6850    81.9390 hc         1 FAK       0.035700
     23 H9         -20.7070    84.9170    80.2980 h1         1 FAK       0.061200
     24 H10        -23.3370    83.8160    80.0660 hn         1 FAK       0.331500
     25 H3         -19.6040    80.8230    81.5300 hc         1 FAK       0.024200
     26 H5         -19.9030    83.5150    82.9750 hc         1 FAK       0.056700
     27 H11        -21.1950    82.4590    80.4010 hc         1 FAK       0.035700
     28 H12        -21.5540    85.1450    81.8470 h1         1 FAK       0.061200
@<TRIPOS>BOND
     1     1     2 1   
     2     1    17 1   
     3     1    18 1   
     4     2     3 1   
     5     2     5 1   
     6     2    19 1   
     7     3     4 1   
     8     3    16 1   
     9     5     6 1   
    10     5    20 1   
    11     5    25 1   
    12     6     7 1   
    13     6    21 1   
    14     6    26 1   
    15     7     8 1   
    16     7    22 1   
    17     7    27 1   
    18     8     9 1   
    19     8    23 1   
    20     8    28 1   
    21     9    10 1   
    22     9    24 1   
    23    10    11 2   
    24    10    12 1   
    25    12    13 1   
    26    12    14 1   
    27    12    15 1   
@<TRIPOS>SUBSTRUCTURE
     1 FAK         1 TEMP              0 ****  ****    0 ROOT
