@<TRIPOS>MOLECULE
FAL
   53    55     1     0     0
SMALL
abcg2


@<TRIPOS>ATOM
      1 C22         -0.3780    -0.2480     5.8410 c3         1 FAL       0.158600
      2 N1           2.5340     0.9300    -1.1880 nb         1 FAL      -0.258000
      3 C2           3.2950     1.2380    -2.2400 ca         1 FAL       0.174900
      4 C6           1.3320     0.4520    -1.4730 ca         1 FAL       0.425900
      5 C4           1.5980     0.5710    -3.7280 ca         1 FAL       0.426900
      6 C3           2.8960     1.0860    -3.5420 ca         1 FAL      -0.332000
      7 N5           0.8320     0.2600    -2.7020 nb         1 FAL      -0.321000
      8 C11         -2.4810    -0.9530    -6.6420 ca         1 FAL      -0.130000
      9 C10         -1.4430    -0.5100    -7.4460 ca         1 FAL      -0.063000
     10 C9          -0.2590    -0.0680    -6.8870 ca         1 FAL       0.048000
     11 C8          -0.0610    -0.0510    -5.4950 ca         1 FAL       0.340000
     12 C12         -2.2900    -0.9380    -5.2730 ca         1 FAL       0.151000
     13 C17          1.7440     0.5360     2.9970 ca         1 FAL      -0.145500
     14 C16          1.7360     0.5520     1.6120 ca         1 FAL      -0.112500
     15 C13         -1.1130    -0.5010    -4.6920 ca         1 FAL      -0.133000
     16 C15          0.6020     0.1370     0.9090 ca         1 FAL       0.277000
     17 C18          0.6360     0.1120     3.7270 ca         1 FAL       0.121100
     18 C19         -0.4970    -0.3000     3.0320 ca         1 FAL      -0.145500
     19 C20         -0.5040    -0.2850     1.6460 ca         1 FAL      -0.112500
     20 O21          0.7460     0.1310     5.0730 os         1 FAL      -0.328100
     21 N7           1.1500     0.4030    -5.0060 nu         1 FAL      -0.934900
     22 CL30        -3.5630    -1.4850    -4.2330 cl         1 FAL      -0.197000
     23 C23         -0.0190    -0.1620     7.3060 c3         1 FAL       0.173300
     24 C24         -1.2750    -0.4030     8.1500 c3         1 FAL       0.119800
     25 N25         -0.9060    -0.6490     9.5310 n3         1 FAL      -0.736600
     26 C26         -0.5310     0.5640    10.2310 c3         1 FAL       0.150100
     27 C27         -1.9310    -1.3750    10.2540 c3         1 FAL       0.150100
     28 O28          0.9530    -1.1280     7.6220 oh         1 FAL      -0.652000
     29 H221        -0.6900    -1.2710     5.5980 h1         1 FAL       0.036700
     30 H222        -1.2250     0.4190     5.6360 h1         1 FAL       0.036700
     31 H2           4.2800     1.6310    -2.0170 h4         1 FAL       0.023100
     32 H3           3.5400     1.3470    -4.3700 ha         1 FAL       0.135000
     33 H11         -3.4050    -1.2990    -7.0820 ha         1 FAL       0.137000
     34 H10         -1.5600    -0.5090    -8.5210 ha         1 FAL       0.133000
     35 H17          2.6330     0.8630     3.5230 ha         1 FAL       0.122500
     36 H16          2.6120     0.8900     1.0830 ha         1 FAL       0.130500
     37 H13         -0.9970    -0.5020    -3.6210 ha         1 FAL       0.169000
     38 H19         -1.3880    -0.6410     3.5420 ha         1 FAL       0.122500
     39 H20         -1.3990    -0.6150     1.1310 ha         1 FAL       0.130500
     40 H7           1.8210     0.6700    -5.7110 hn         1 FAL       0.512000
     41 H23          0.3600     0.8520     7.5060 h1         1 FAL       0.047700
     42 H241        -1.7830    -1.2970     7.7740 h1         1 FAL       0.043700
     43 H242        -1.9750     0.4380     8.0380 h1         1 FAL       0.043700
     44 H261        -0.2190     0.3220    11.2470 h1         1 FAL       0.035533
     45 H262         0.3100     1.0550     9.7410 h1         1 FAL       0.035533
     46 H263        -1.3550     1.2900    10.2930 h1         1 FAL       0.035533
     47 H271        -2.1620    -2.3080     9.7390 h1         1 FAL       0.035533
     48 H272        -1.5730    -1.6230    11.2540 h1         1 FAL       0.035533
     49 H273        -2.8670    -0.8080    10.3620 h1         1 FAL       0.035533
     50 H28          0.7610    -1.3740     8.5430 ho         1 FAL       0.469000
     51 N14          0.4760     0.1030    -0.4800 nu         1 FAL      -0.922900
     52 CL29         1.0000     0.4760    -7.9480 cl         1 FAL      -0.204000
     53 H14         -0.4070    -0.2460    -0.8200 hn         1 FAL       0.507000
@<TRIPOS>BOND
     1     1    20 1   
     2     1    23 1   
     3     1    29 1   
     4     1    30 1   
     5     2     3 ar  
     6     2     4 ar  
     7     3     6 ar  
     8     3    31 1   
     9     4     7 ar  
    10     4    51 1   
    11     5     6 ar  
    12     5     7 ar  
    13     5    21 1   
    14     6    32 1   
    15     8     9 ar  
    16     8    12 ar  
    17     8    33 1   
    18     9    10 ar  
    19     9    34 1   
    20    10    11 ar  
    21    10    52 1   
    22    11    15 ar  
    23    11    21 1   
    24    12    15 ar  
    25    12    22 1   
    26    13    14 ar  
    27    13    17 ar  
    28    13    35 1   
    29    14    16 ar  
    30    14    36 1   
    31    15    37 1   
    32    16    19 ar  
    33    16    51 1   
    34    17    18 ar  
    35    17    20 1   
    36    18    19 ar  
    37    18    38 1   
    38    19    39 1   
    39    21    40 1   
    40    23    24 1   
    41    23    28 1   
    42    23    41 1   
    43    24    25 1   
    44    24    42 1   
    45    24    43 1   
    46    25    26 1   
    47    25    27 1   
    48    26    44 1   
    49    26    45 1   
    50    26    46 1   
    51    27    47 1   
    52    27    48 1   
    53    27    49 1   
    54    28    50 1   
    55    51    53 1   
@<TRIPOS>SUBSTRUCTURE
     1 FAL         1 TEMP              0 ****  ****    0 ROOT
