@<TRIPOS>MOLECULE
FAL
   53    55     1     0     0
SMALL
No Charge or Current Charge


@<TRIPOS>ATOM
      1 C22         -0.4990    -0.2880     5.9120 c3         1 FAL       0.158600
      2 N1           2.6490     0.3250    -1.2190 nb         1 FAL      -0.258000
      3 C2           3.5180     0.4350    -2.2400 ca         1 FAL       0.174900
      4 C6           1.3500     0.2010    -1.5490 ca         1 FAL       0.425900
      5 C4           1.7140     0.2500    -3.7970 ca         1 FAL       0.426900
      6 C3           3.0810     0.4080    -3.5720 ca         1 FAL      -0.332000
      7 N5           0.8390     0.1520    -2.7870 nb         1 FAL      -0.321000
      8 C11         -2.4910    -0.5310    -6.9500 ca         1 FAL      -0.130000
      9 C10         -1.5460     0.2950    -7.5800 ca         1 FAL      -0.063000
     10 C9          -0.3100     0.5480    -6.9600 ca         1 FAL       0.048000
     11 C8          -0.0110    -0.0170    -5.6940 ca         1 FAL       0.340000
     12 C12         -2.1930    -1.1080    -5.7060 ca         1 FAL       0.151000
     13 C17          1.3770     0.9980     2.9540 ca         1 FAL      -0.145500
     14 C16          1.3920     0.9300     1.5480 ca         1 FAL      -0.112500
     15 C13         -0.9610    -0.8580    -5.0850 ca         1 FAL      -0.133000
     16 C15          0.4450     0.1450     0.8600 ca         1 FAL       0.277000
     17 C18          0.4140     0.2910     3.6910 ca         1 FAL       0.121100
     18 C19         -0.5480    -0.4850     3.0080 ca         1 FAL      -0.145500
     19 C20         -0.5290    -0.5490     1.6010 ca         1 FAL      -0.112500
     20 O21          0.4470     0.3960     5.0660 os         1 FAL      -0.328100
     21 N7           1.2370     0.2420    -5.0980 nu         1 FAL      -0.934900
     22 Cl30        -3.3680    -2.1600    -4.9270 cl         1 FAL      -0.197000
     23 C23         -0.1840     0.0470     7.3940 c3         1 FAL       0.173300
     24 C24         -1.2420    -0.5210     8.3750 c3         1 FAL       0.119800
     25 N25         -0.7580    -0.6050     9.7870 n3         1 FAL      -0.736600
     26 C26         -0.5240     0.7240    10.4100 c3         1 FAL       0.150100
     27 C27         -1.6360    -1.4520    10.6270 c3         1 FAL       0.150100
     28 O28          1.0760    -0.4970     7.8110 oh         1 FAL      -0.652000
     29 H221        -0.4430    -1.3740     5.7620 h1         1 FAL       0.036700
     30 H222        -1.5210     0.0410     5.6830 h1         1 FAL       0.036700
     31 H2           4.5710     0.5460    -1.9860 h4         1 FAL       0.023100
     32 H3           3.7880     0.4990    -4.3910 ha         1 FAL       0.135000
     33 H11         -3.4480    -0.7310    -7.4270 ha         1 FAL       0.137000
     34 H10         -1.7690     0.7370    -8.5480 ha         1 FAL       0.133000
     35 H17          2.1130     1.6060     3.4740 ha         1 FAL       0.122500
     36 H16          2.1320     1.5060     1.0040 ha         1 FAL       0.130500
     37 H13         -0.7470    -1.3380    -4.1380 ha         1 FAL       0.169000
     38 H19         -1.3120    -1.0400     3.5450 ha         1 FAL       0.122500
     39 H20         -1.2740    -1.1500     1.0870 ha         1 FAL       0.130500
     40 H7           1.9160     0.6140    -5.7610 hn         1 FAL       0.512000
     41 H23         -0.1710     1.1400     7.5060 h1         1 FAL       0.047700
     42 H241        -1.5110    -1.5280     8.0260 h1         1 FAL       0.043700
     43 H242        -2.1540     0.0900     8.3140 h1         1 FAL       0.043700
     44 H261        -0.1320     0.6090    11.4290 h1         1 FAL       0.035533
     45 H262         0.2050     1.3110     9.8380 h1         1 FAL       0.035533
     46 H263        -1.4590     1.2990    10.4660 h1         1 FAL       0.035533
     47 H271        -1.7320    -2.4580    10.1980 h1         1 FAL       0.035533
     48 H272        -1.2220    -1.5570    11.6390 h1         1 FAL       0.035533
     49 H273        -2.6400    -1.0150    10.7100 h1         1 FAL       0.035533
     50 H28          0.8830    -0.7440     8.7510 ho         1 FAL       0.469000
     51 N14          0.4110     0.0580    -0.5390 nu         1 FAL      -0.922900
     52 Cl29         0.8560     1.5870    -7.7910 cl         1 FAL      -0.204000
     53 H14         -0.4890    -0.2440    -0.9090 hn         1 FAL       0.507000
@<TRIPOS>BOND
     1     1    20 1   
     2     1    23 1   
     3     1    29 1   
     4     1    30 1   
     5     2     3 ar  
     6     2     4 ar  
     7     3     6 ar  
     8     3    31 1   
     9     4     7 ar  
    10     4    51 1   
    11     5     6 ar  
    12     5     7 ar  
    13     5    21 1   
    14     6    32 1   
    15     8     9 ar  
    16     8    12 ar  
    17     8    33 1   
    18     9    10 ar  
    19     9    34 1   
    20    10    11 ar  
    21    10    52 1   
    22    11    15 ar  
    23    11    21 1   
    24    12    15 ar  
    25    12    22 1   
    26    13    14 ar  
    27    13    17 ar  
    28    13    35 1   
    29    14    16 ar  
    30    14    36 1   
    31    15    37 1   
    32    16    19 ar  
    33    16    51 1   
    34    17    18 ar  
    35    17    20 1   
    36    18    19 ar  
    37    18    38 1   
    38    19    39 1   
    39    21    40 1   
    40    23    24 1   
    41    23    28 1   
    42    23    41 1   
    43    24    25 1   
    44    24    42 1   
    45    24    43 1   
    46    25    26 1   
    47    25    27 1   
    48    26    44 1   
    49    26    45 1   
    50    26    46 1   
    51    27    47 1   
    52    27    48 1   
    53    27    49 1   
    54    28    50 1   
    55    51    53 1   
@<TRIPOS>SUBSTRUCTURE
     1 FAL         1 TEMP              0 ****  ****    0 ROOT
