@<TRIPOS>MOLECULE
FAN
   16    16     1     0     0
SMALL
No Charge or Current Charge


@<TRIPOS>ATOM
      1 C1           0.9020    -0.1400     2.2190 ca         1 FAN      -0.084000
      2 C2           1.3000    -0.0800     0.8720 ca         1 FAN      -0.149500
      3 C3           0.3470     0.0690    -0.1540 ca         1 FAN      -0.028000
      4 C4          -1.0200     0.1590     0.1920 ca         1 FAN      -0.149500
      5 C5          -1.4180     0.1000     1.5400 ca         1 FAN      -0.084000
      6 C6          -0.4580    -0.0490     2.5530 ca         1 FAN      -0.135000
      7 C7           0.1780     0.2580    -2.7160 c          1 FAN       0.605900
      8 N1           0.8250     0.1210    -1.4940 ns         1 FAN      -0.155000
      9 O1          -1.0350     0.3690    -2.8690 o          1 FAN      -0.579100
     10 H1           1.6480    -0.2550     3.0030 ha         1 FAN       0.113500
     11 H2           2.3580    -0.1510     0.6270 ha         1 FAN       0.126500
     12 H4          -1.7900     0.2740    -0.5640 ha         1 FAN       0.126500
     13 H5          -2.4730     0.1700     1.7980 ha         1 FAN       0.113500
     14 H6          -0.7680    -0.0950     3.5950 ha         1 FAN       0.115000
     15 H7           0.8970     0.2560    -3.5550 h5         1 FAN       0.012200
     16 HN1          1.8310     0.0430    -1.5710 hn         1 FAN       0.149000
@<TRIPOS>BOND
     1     1     2 ar  
     2     1     6 ar  
     3     1    10 1   
     4     2     3 ar  
     5     2    11 1   
     6     3     4 ar  
     7     3     8 1   
     8     4     5 ar  
     9     4    12 1   
    10     5     6 ar  
    11     5    13 1   
    12     6    14 1   
    13     7     8 1   
    14     7     9 2   
    15     7    15 1   
    16     8    16 1   
@<TRIPOS>SUBSTRUCTURE
     1 FAN         1 TEMP              0 ****  ****    0 ROOT
