@<TRIPOS>MOLECULE
FAN
   16    16     1     0     0
SMALL
bcc


@<TRIPOS>ATOM
      1 C1           0.8880    -0.1440     2.1870 ca         1 FAN      -0.102000
      2 C2           1.2870    -0.0810     0.8630 ca         1 FAN      -0.167500
      3 C3           0.3460     0.0760    -0.1570 ca         1 FAN       0.064600
      4 C4          -1.0070     0.1700     0.1750 ca         1 FAN      -0.167500
      5 C5          -1.3910     0.1050     1.5090 ca         1 FAN      -0.102000
      6 C6          -0.4570    -0.0510     2.5210 ca         1 FAN      -0.153000
      7 C7           0.1630     0.2420    -2.6330 c          1 FAN       0.672900
      8 N1           0.8340     0.1320    -1.4670 ns         1 FAN      -0.481100
      9 O1          -1.0410     0.3210    -2.7750 o          1 FAN      -0.579100
     10 H1           1.6360    -0.2670     2.9600 ha         1 FAN       0.131500
     11 H2           2.3400    -0.1550     0.6180 ha         1 FAN       0.144500
     12 H4          -1.7580     0.2910    -0.5880 ha         1 FAN       0.144500
     13 H5          -2.4440     0.1800     1.7500 ha         1 FAN       0.131500
     14 H6          -0.7700    -0.1000     3.5560 ha         1 FAN       0.133000
     15 H7           0.8600     0.2510    -3.4830 h5         1 FAN       0.012200
     16 HN1          1.8370     0.0770    -1.5590 hn         1 FAN       0.315500
@<TRIPOS>BOND
     1     1     2 ar  
     2     1     6 ar  
     3     1    10 1   
     4     2     3 ar  
     5     2    11 1   
     6     3     4 ar  
     7     3     8 1   
     8     4     5 ar  
     9     4    12 1   
    10     5     6 ar  
    11     5    13 1   
    12     6    14 1   
    13     7     8 1   
    14     7     9 2   
    15     7    15 1   
    16     8    16 1   
@<TRIPOS>SUBSTRUCTURE
     1 FAN         1 TEMP              0 ****  ****    0 ROOT
