@<TRIPOS>MOLECULE
FAO
   88    93     1     0     0
SMALL
abcg2


@<TRIPOS>ATOM
      1 PA          89.0580    34.9710    69.5300 p5         1 FAO       1.476800
      2 O1A         88.2530    34.8050    68.2820 o          1 FAO      -0.854500
      3 O2A         89.1620    36.2990    70.1970 o          1 FAO      -0.854500
      4 O5A         90.5900    34.4840    69.2740 os         1 FAO      -0.595400
      5 C5A         90.8510    33.1770    68.7630 c3         1 FAO       0.218600
      6 C4A         91.6470    33.2990    67.4720 c5         1 FAO       0.121300
      7 O4A         92.1130    31.9790    67.1000 os         1 FAO      -0.471000
      8 C3A         90.8310    33.8140    66.2880 c5         1 FAO       0.100300
      9 O3A         91.6500    34.4600    65.3100 oh         1 FAO      -0.763000
     10 C2A         90.3360    32.5170    65.6440 c5         1 FAO       0.132300
     11 O6          89.9490    32.6410    64.2970 oh         1 FAO      -0.705000
     12 C1A         91.5420    31.5870    65.8600 c5         1 FAO       0.273300
     13 N9A         91.2150    30.1810    65.9040 na         1 FAO      -0.273300
     14 C8A         90.3340    29.5520    66.7570 cc         1 FAO       0.452700
     15 N7A         90.2790    28.2560    66.5780 nd         1 FAO      -0.583100
     16 C11         91.1730    28.0060    65.5500 ca         1 FAO      -0.088600
     17 C6A         91.5710    26.8260    64.8920 ca         1 FAO       0.433900
     18 N6A         91.0840    25.6160    65.2090 nv         1 FAO      -1.080900
     19 N1A         92.4910    26.9270    63.9130 nb         1 FAO      -0.319000
     20 C13         92.9850    28.1320    63.6090 ca         1 FAO       0.152900
     21 N3A         92.6840    29.3090    64.1540 nb         1 FAO      -0.203000
     22 C12         91.7700    29.1910    65.1230 ca         1 FAO       0.130500
     23 N1          81.5890    36.3700    77.0390 ns         1 FAO      -0.518900
     24 C2          82.5130    36.9170    77.8620 c          1 FAO       0.623000
     25 O2          83.3970    36.2880    78.4230 o          1 FAO      -0.548000
     26 N3          82.3940    38.2950    78.0460 ns         1 FAO      -0.484500
     27 C4          81.3580    39.0970    77.6320 c          1 FAO       0.578000
     28 O4          81.3720    40.2950    77.8220 o          1 FAO      -0.501000
     29 C4N         80.1880    38.3440    76.9800 c6         1 FAO       0.132500
     30 N5          79.3780    39.2140    76.1870 nu         1 FAO      -0.933200
     31 C5N         79.8230    39.4830    74.8830 ca         1 FAO       0.218000
     32 C6          79.2450    40.5240    74.1570 ca         1 FAO      -0.110000
     33 C7          79.6880    40.8890    72.8920 ca         1 FAO      -0.090300
     34 C7M         79.0230    42.0130    72.1440 c3         1 FAO      -0.035800
     35 C8          80.7870    40.2040    72.3490 ca         1 FAO      -0.062300
     36 C8M         81.3490    40.5860    71.0060 c3         1 FAO      -0.046800
     37 C9          81.3610    39.1600    73.0680 ca         1 FAO      -0.118000
     38 C9N         80.8790    38.7490    74.3170 ca         1 FAO       0.252000
     39 N10         81.4480    37.6490    75.0070 nh         1 FAO      -0.838400
     40 C10         80.7270    37.1570    76.1820 c6         1 FAO       0.370900
     41 C1          82.0920    36.5930    74.2220 c3         1 FAO       0.164800
     42 C14         83.6080    36.5520    74.4530 c3         1 FAO       0.157300
     43 O7          84.1470    37.8750    74.4180 oh         1 FAO      -0.723000
     44 C3          84.3120    35.7050    73.3940 c3         1 FAO       0.131300
     45 O3          83.7740    34.3900    73.5570 oh         1 FAO      -0.688000
     46 C15         85.8470    35.7020    73.5510 c3         1 FAO       0.153300
     47 O8          86.3920    36.9860    73.2540 oh         1 FAO      -0.673000
     48 C5          86.4870    34.7040    72.6110 c3         1 FAO       0.229600
     49 O5          87.8940    34.6520    72.8650 os         1 FAO      -0.582400
     50 P           88.7850    33.5120    72.1290 p5         1 FAO       1.480800
     51 O1P         90.2020    33.7950    72.4940 o          1 FAO      -0.856500
     52 O2P         88.1920    32.1610    72.3650 o          1 FAO      -0.856500
     53 O3P         88.5030    33.8280    70.5510 os         1 FAO      -0.739800
     54 HC1         91.4400    32.6270    69.4980 h1         1 FAO       0.044700
     55 HC2         89.9240    32.6280    68.5890 h1         1 FAO       0.044700
     56 HC          92.5160    33.9380    67.6380 h1         1 FAO       0.081700
     57 HCA         90.0140    34.4580    66.6080 h1         1 FAO       0.141700
     58 HCB         92.2580    31.7060    65.0440 h2         1 FAO       0.088700
     59 HO          91.6830    35.4040    65.5050 ho         1 FAO       0.517000
     60 HCC         89.4780    32.1390    66.1990 h1         1 FAO       0.107700
     61 HOA         90.5380    33.3010    63.9000 ho         1 FAO       0.514000
     62 H8A         89.7730    30.1050    67.4950 h5         1 FAO       0.096800
     63 H6A1        90.3430    25.5230    65.8820 hn         1 FAO       0.497000
     64 H6A2        91.3480    24.8130    64.6610 hn         1 FAO       0.497000
     65 HA          93.7240    28.1480    62.8140 h5         1 FAO       0.030100
     66 H10         79.8920    36.5120    75.8940 h2         1 FAO       0.053700
     67 H4N         79.5920    37.9470    77.8050 h1         1 FAO       0.079700
     68 H5          78.3830    39.1050    76.3040 hn         1 FAO       0.465000
     69 H6          78.4270    41.0680    74.6160 ha         1 FAO       0.107000
     70 H7M1        78.2030    42.4340    72.7250 hc         1 FAO       0.035700
     71 H7M2        79.7290    42.8180    71.9190 hc         1 FAO       0.035700
     72 H7M3        78.6200    41.6720    71.1860 hc         1 FAO       0.035700
     73 H8M1        81.6910    41.6250    70.9960 hc         1 FAO       0.045367
     74 H8M2        82.1920    39.9500    70.7390 hc         1 FAO       0.045367
     75 H8M3        80.5950    40.4980    70.2180 hc         1 FAO       0.045367
     76 H9          82.2140    38.6570    72.6370 ha         1 FAO       0.143000
     77 H11         81.6630    35.6260    74.4830 h1         1 FAO       0.055200
     78 H12         81.8900    36.7510    73.1640 h1         1 FAO       0.055200
     79 H2          83.8170    36.1050    75.4310 h1         1 FAO       0.051700
     80 HB          83.6120    38.4160    75.0190 ho         1 FAO       0.514000
     81 H3          84.0690    36.0990    72.4010 h1         1 FAO       0.046700
     82 H13         83.7710    33.9440    72.7030 ho         1 FAO       0.460000
     83 H4          86.0890    35.4150    74.5830 h1         1 FAO       0.043700
     84 HD          85.8590    37.6350    73.7420 ho         1 FAO       0.487000
     85 H51         86.0540    33.7150    72.7630 h1         1 FAO       0.029700
     86 H52         86.3140    35.0140    71.5760 h1         1 FAO       0.029700
     87 H1          81.6740    35.3770    76.8790 hn         1 FAO       0.346500
     88 H14         83.1410    38.7320    78.5700 hn         1 FAO       0.343500
@<TRIPOS>BOND
     1     1     2 1   
     2     1     3 1   
     3     1     4 1   
     4     1    53 1   
     5     4     5 1   
     6     5     6 1   
     7     5    54 1   
     8     5    55 1   
     9     6     7 1   
    10     6     8 1   
    11     6    56 1   
    12     7    12 1   
    13     8     9 1   
    14     8    10 1   
    15     8    57 1   
    16     9    59 1   
    17    10    11 1   
    18    10    12 1   
    19    10    60 1   
    20    11    61 1   
    21    12    13 1   
    22    12    58 1   
    23    13    14 1   
    24    13    22 1   
    25    14    15 2   
    26    14    62 1   
    27    15    16 1   
    28    16    17 ar  
    29    16    22 ar  
    30    17    18 1   
    31    17    19 ar  
    32    18    63 1   
    33    18    64 1   
    34    19    20 ar  
    35    20    21 ar  
    36    20    65 1   
    37    21    22 ar  
    38    23    24 1   
    39    23    40 1   
    40    23    87 1   
    41    24    25 2   
    42    24    26 1   
    43    26    27 1   
    44    26    88 1   
    45    27    28 2   
    46    27    29 1   
    47    29    30 1   
    48    29    40 1   
    49    29    67 1   
    50    30    31 1   
    51    30    68 1   
    52    31    32 ar  
    53    31    38 ar  
    54    32    33 ar  
    55    32    69 1   
    56    33    34 1   
    57    33    35 ar  
    58    34    70 1   
    59    34    71 1   
    60    34    72 1   
    61    35    36 1   
    62    35    37 ar  
    63    36    73 1   
    64    36    74 1   
    65    36    75 1   
    66    37    38 ar  
    67    37    76 1   
    68    38    39 1   
    69    39    40 1   
    70    39    41 1   
    71    40    66 1   
    72    41    42 1   
    73    41    77 1   
    74    41    78 1   
    75    42    43 1   
    76    42    44 1   
    77    42    79 1   
    78    43    80 1   
    79    44    45 1   
    80    44    46 1   
    81    44    81 1   
    82    45    82 1   
    83    46    47 1   
    84    46    48 1   
    85    46    83 1   
    86    47    84 1   
    87    48    49 1   
    88    48    85 1   
    89    48    86 1   
    90    49    50 1   
    91    50    51 1   
    92    50    52 1   
    93    50    53 1   
@<TRIPOS>SUBSTRUCTURE
     1 FAO         1 TEMP              0 ****  ****    0 ROOT
