@<TRIPOS>MOLECULE
FAO
   88    93     1     0     0
SMALL
No Charge or Current Charge


@<TRIPOS>ATOM
      1 PA          90.6150    34.7620    69.7150 p5         1 FAO       1.476800
      2 O1A         89.5700    35.4100    68.8720 o          1 FAO      -0.854500
      3 O2A         91.7170    35.6960    70.0850 o          1 FAO      -0.854500
      4 O5A         91.2510    33.4920    68.9490 os         1 FAO      -0.595400
      5 C5A         90.4220    32.5570    68.2360 c3         1 FAO       0.218600
      6 C4A         89.9290    33.1720    66.8810 c5         1 FAO       0.121300
      7 O4A         90.2760    32.3090    65.7730 os         1 FAO      -0.471000
      8 C3A         88.3800    33.3010    66.7370 c5         1 FAO       0.100300
      9 O3A         87.9760    34.1540    65.6350 oh         1 FAO      -0.763000
     10 C2A         88.0020    31.8190    66.4350 c5         1 FAO       0.132300
     11 O6          86.8020    31.8220    65.6590 oh         1 FAO      -0.705000
     12 C1A         89.2640    31.2770    65.6510 c5         1 FAO       0.273300
     13 N9A         89.7850    29.9720    66.0860 na         1 FAO      -0.273300
     14 C8A         88.9880    28.9080    66.5300 cc         1 FAO       0.452700
     15 N7A         89.7280    27.8210    66.8240 nd         1 FAO      -0.583100
     16 C11         91.0310    28.2310    66.5290 ca         1 FAO      -0.088600
     17 C6A         92.2380    27.5070    66.6260 ca         1 FAO       0.433900
     18 N6A         92.2920    26.2200    67.0610 nv         1 FAO      -1.080900
     19 N1A         93.4100    28.0570    66.2720 nb         1 FAO      -0.319000
     20 C13         93.3550    29.3350    65.8270 ca         1 FAO       0.152900
     21 N3A         92.2470    30.1040    65.7050 nb         1 FAO      -0.203000
     22 C12         91.0830    29.5260    66.0710 ca         1 FAO       0.130500
     23 N1          82.2980    36.6940    76.5210 ns         1 FAO      -0.518900
     24 C2          81.9690    36.5510    77.8320 c          1 FAO       0.623000
     25 O2          82.8080    36.5120    78.7100 o          1 FAO      -0.548000
     26 N3          80.6430    36.4370    78.0940 ns         1 FAO      -0.484500
     27 C4          79.5860    36.6140    77.2470 c          1 FAO       0.578000
     28 O4          78.4410    36.5520    77.6720 o          1 FAO      -0.501000
     29 C4N         79.9070    36.9800    75.7650 c6         1 FAO       0.132500
     30 N5          79.6430    38.4400    75.4870 nu         1 FAO      -0.933200
     31 C5N         80.3690    39.1500    74.5160 ca         1 FAO       0.218000
     32 C6          79.9370    40.4370    74.1590 ca         1 FAO      -0.110000
     33 C7          80.6300    41.1930    73.1960 ca         1 FAO      -0.090300
     34 C7M         80.1280    42.5890    72.8370 c3         1 FAO      -0.035800
     35 C8          81.7800    40.6470    72.5830 ca         1 FAO      -0.062300
     36 C8M         82.5680    41.4370    71.5410 c3         1 FAO      -0.046800
     37 C9          82.2140    39.3550    72.9400 ca         1 FAO      -0.118000
     38 C9N         81.5240    38.5810    73.8970 ca         1 FAO       0.252000
     39 N10         81.9970    37.2660    74.2490 nh         1 FAO      -0.838400
     40 C10         81.3830    36.5600    75.4120 c6         1 FAO       0.370900
     41 C1          82.7310    36.4000    73.2650 c3         1 FAO       0.164800
     42 C14         84.2450    36.2920    73.5940 c3         1 FAO       0.157300
     43 O7          84.5320    37.4580    74.3770 oh         1 FAO      -0.723000
     44 C3          85.1750    36.1870    72.3380 c3         1 FAO       0.131300
     45 O3          84.8140    35.0240    71.5650 oh         1 FAO      -0.688000
     46 C15         86.6940    36.1200    72.7140 c3         1 FAO       0.153300
     47 O8          87.0350    37.2790    73.5030 oh         1 FAO      -0.673000
     48 C5          87.6120    36.0180    71.4470 c3         1 FAO       0.229600
     49 O5          89.0100    36.0360    71.7960 os         1 FAO      -0.582400
     50 P           89.7760    34.7000    72.2780 p5         1 FAO       1.480800
     51 O1P         91.0600    35.0050    72.9770 o          1 FAO      -0.856500
     52 O2P         88.9110    33.8650    73.1620 o          1 FAO      -0.856500
     53 O3P         90.0060    33.9410    70.9140 os         1 FAO      -0.739800
     54 HC1         90.9980    31.6450    68.0320 h1         1 FAO       0.044700
     55 HC2         89.5590    32.2630    68.8480 h1         1 FAO       0.044700
     56 HC          90.4310    34.1370    66.7310 h1         1 FAO       0.081700
     57 HCA         87.9260    33.6400    67.6830 h1         1 FAO       0.141700
     58 HCB         89.0180    31.1500    64.5890 h2         1 FAO       0.088700
     59 HO          88.3270    35.0580    65.8260 ho         1 FAO       0.517000
     60 HCC         87.8610    31.2660    67.3760 h1         1 FAO       0.107700
     61 HOA         86.8170    32.7470    65.2920 ho         1 FAO       0.514000
     62 H8A         87.9090    28.9820    66.6080 h5         1 FAO       0.096800
     63 H6A1        91.4070    25.7220    67.1200 hn         1 FAO       0.497000
     64 H6A2        93.1140    25.6670    66.8310 hn         1 FAO       0.497000
     65 HA          94.2990    29.7920    65.5370 h5         1 FAO       0.030100
     66 H10         81.3500    35.4840    75.1770 h2         1 FAO       0.053700
     67 H4N         79.2430    36.3630    75.1420 h1         1 FAO       0.079700
     68 H5          78.7940    38.8770    75.8560 hn         1 FAO       0.465000
     69 H6          79.0550    40.8540    74.6370 ha         1 FAO       0.107000
     70 H7M1        79.2250    42.8550    73.4000 hc         1 FAO       0.035700
     71 H7M2        80.8860    43.3500    73.0570 hc         1 FAO       0.035700
     72 H7M3        79.8790    42.6570    71.7710 hc         1 FAO       0.035700
     73 H8M1        82.9500    42.3740    71.9610 hc         1 FAO       0.045367
     74 H8M2        83.4300    40.8730    71.1660 hc         1 FAO       0.045367
     75 H8M3        81.9400    41.6840    70.6770 hc         1 FAO       0.045367
     76 H9          83.1080    38.9590    72.4700 ha         1 FAO       0.143000
     77 H11         82.3000    35.3890    73.2410 h1         1 FAO       0.055200
     78 H12         82.6040    36.7970    72.2490 h1         1 FAO       0.055200
     79 H2          84.3930    35.3960    74.2130 h1         1 FAO       0.051700
     80 HB          83.5900    37.7630    74.5460 ho         1 FAO       0.514000
     81 H3          85.0240    37.0890    71.7290 h1         1 FAO       0.046700
     82 H13         84.1660    35.3050    70.8800 ho         1 FAO       0.460000
     83 H4          86.8280    35.2170    73.3220 h1         1 FAO       0.043700
     84 HD          86.1880    37.5040    73.9830 ho         1 FAO       0.487000
     85 H51         87.3700    35.0970    70.9000 h1         1 FAO       0.029700
     86 H52         87.3870    36.8590    70.7790 h1         1 FAO       0.029700
     87 H1          83.2840    36.7640    76.3170 hn         1 FAO       0.346500
     88 H14         80.4050    36.2740    79.0590 hn         1 FAO       0.343500
@<TRIPOS>BOND
     1     1     2 1   
     2     1     3 1   
     3     1     4 1   
     4     1    53 1   
     5     4     5 1   
     6     5     6 1   
     7     5    54 1   
     8     5    55 1   
     9     6     7 1   
    10     6     8 1   
    11     6    56 1   
    12     7    12 1   
    13     8     9 1   
    14     8    10 1   
    15     8    57 1   
    16     9    59 1   
    17    10    11 1   
    18    10    12 1   
    19    10    60 1   
    20    11    61 1   
    21    12    13 1   
    22    12    58 1   
    23    13    14 1   
    24    13    22 1   
    25    14    15 2   
    26    14    62 1   
    27    15    16 1   
    28    16    17 ar  
    29    16    22 ar  
    30    17    18 1   
    31    17    19 ar  
    32    18    63 1   
    33    18    64 1   
    34    19    20 ar  
    35    20    21 ar  
    36    20    65 1   
    37    21    22 ar  
    38    23    24 1   
    39    23    40 1   
    40    23    87 1   
    41    24    25 2   
    42    24    26 1   
    43    26    27 1   
    44    26    88 1   
    45    27    28 2   
    46    27    29 1   
    47    29    30 1   
    48    29    40 1   
    49    29    67 1   
    50    30    31 1   
    51    30    68 1   
    52    31    32 ar  
    53    31    38 ar  
    54    32    33 ar  
    55    32    69 1   
    56    33    34 1   
    57    33    35 ar  
    58    34    70 1   
    59    34    71 1   
    60    34    72 1   
    61    35    36 1   
    62    35    37 ar  
    63    36    73 1   
    64    36    74 1   
    65    36    75 1   
    66    37    38 ar  
    67    37    76 1   
    68    38    39 1   
    69    39    40 1   
    70    39    41 1   
    71    40    66 1   
    72    41    42 1   
    73    41    77 1   
    74    41    78 1   
    75    42    43 1   
    76    42    44 1   
    77    42    79 1   
    78    43    80 1   
    79    44    45 1   
    80    44    46 1   
    81    44    81 1   
    82    45    82 1   
    83    46    47 1   
    84    46    48 1   
    85    46    83 1   
    86    47    84 1   
    87    48    49 1   
    88    48    85 1   
    89    48    86 1   
    90    49    50 1   
    91    50    51 1   
    92    50    52 1   
    93    50    53 1   
@<TRIPOS>SUBSTRUCTURE
     1 FAO         1 TEMP              0 ****  ****    0 ROOT
