@<TRIPOS>MOLECULE
FAP
   53    55     1     0     0
SMALL
abcg2


@<TRIPOS>ATOM
      1 C22          0.8310    -0.5650     1.2780 ca         1 FAP      -0.096000
      2 C1          -2.9360    -0.2150    -2.6490 ca         1 FAP       0.193900
      3 C5          -0.8080    -0.0420    -1.9290 ca         1 FAP       0.410900
      4 C4          -0.3640    -0.0290    -3.2540 ca         1 FAP      -0.357000
      5 C3          -1.3390    -0.1070    -4.2380 ca         1 FAP       0.415900
      6 C17         -0.1170     0.0400     0.4600 ca         1 FAP       0.267000
      7 C18         -1.1980     0.6860     1.0650 ca         1 FAP      -0.096000
      8 C19         -1.3170     0.7070     2.4420 ca         1 FAP      -0.153000
      9 C20         -0.3580     0.1070     3.2580 ca         1 FAP       0.125100
     10 N2          -2.6440    -0.2060    -3.9330 nb         1 FAP      -0.282000
     11 N6          -2.1070    -0.1350    -1.6240 nb         1 FAP      -0.274000
     12 N7          -1.0580    -0.0960    -5.5670 nu         1 FAP      -0.951900
     13 N16          0.1010     0.0310    -0.9250 nu         1 FAP      -0.940900
     14 C21          0.7250    -0.5310     2.6620 ca         1 FAP      -0.153000
     15 O23         -0.5570     0.2040     4.5890 os         1 FAP      -0.328100
     16 C24          0.4020    -0.3560     5.4620 c3         1 FAP       0.128600
     17 C11          2.7600     0.3910    -7.2240 ca         1 FAP      -0.058000
     18 C10          2.1130    -0.8300    -7.3450 ca         1 FAP      -0.166000
     19 C9           0.8630    -0.9710    -6.7770 ca         1 FAP       0.193000
     20 C8           0.2210     0.0650    -6.1070 ca         1 FAP       0.190000
     21 C12          2.1650     1.4540    -6.5590 ca         1 FAP      -0.166000
     22 C13          0.9060     1.2740    -6.0260 ca         1 FAP       0.193000
     23 F15          0.3060     2.2870    -5.3970 f          1 FAP      -0.159500
     24 C25          0.0040    -0.0060     6.8870 c3         1 FAP       0.171300
     25 C26          1.0890    -0.5020     7.8400 c3         1 FAP       0.128800
     26 N27          0.8110    -0.2180     9.2330 n3         1 FAP      -0.702600
     27 C28          1.6930    -0.9730    10.0970 c3         1 FAP       0.148100
     28 C29          0.8880     1.1950     9.5310 c3         1 FAP       0.148100
     29 O30         -1.2720    -0.4960     7.2170 oh         1 FAP      -0.625000
     30 H22          1.6790    -1.0720     0.8320 ha         1 FAP       0.125000
     31 H1L         -3.9900    -0.2990    -2.4010 h5         1 FAP       0.045100
     32 H4           0.6920     0.0270    -3.4840 ha         1 FAP       0.130000
     33 H18         -1.9490     1.1760     0.4650 ha         1 FAP       0.125000
     34 H19         -2.1610     1.2110     2.8970 ha         1 FAP       0.123000
     35 H7          -1.8350    -0.2490    -6.1920 hn         1 FAP       0.525000
     36 H16          1.0660    -0.0220    -1.2100 hn         1 FAP       0.495000
     37 H21          1.4960    -1.0130     3.2480 ha         1 FAP       0.123000
     38 H241         1.4000     0.0480     5.2540 h1         1 FAP       0.033700
     39 H242         0.4530    -1.4460     5.3350 h1         1 FAP       0.033700
     40 H11          3.7430     0.5180    -7.6560 ha         1 FAP       0.125000
     41 H10          2.5730    -1.6600    -7.8640 ha         1 FAP       0.141000
     42 H12          2.6630     2.4100    -6.4700 ha         1 FAP       0.141000
     43 H25         -0.0700     1.0840     6.9490 h1         1 FAP       0.084700
     44 H261         2.0580    -0.0810     7.5220 h1         1 FAP       0.033200
     45 H262         1.1770    -1.5890     7.7280 h1         1 FAP       0.033200
     46 H281         1.4460    -0.7800    11.1420 h1         1 FAP       0.032867
     47 H282         1.5710    -2.0430     9.9190 h1         1 FAP       0.032867
     48 H283         2.7580    -0.7290     9.9560 h1         1 FAP       0.032867
     49 H291         0.1460     1.7570     8.9640 h1         1 FAP       0.032867
     50 H292         0.6790     1.3610    10.5880 h1         1 FAP       0.032867
     51 H293         1.8780     1.6280     9.3120 h1         1 FAP       0.032867
     52 H30         -1.2040    -1.4420     7.3820 ho         1 FAP       0.440000
     53 F14          0.2240    -2.1390    -6.8740 f          1 FAP      -0.159500
@<TRIPOS>BOND
     1     1     6 ar  
     2     1    14 ar  
     3     1    30 1   
     4     2    10 ar  
     5     2    11 ar  
     6     2    31 1   
     7     3     4 ar  
     8     3    11 ar  
     9     3    13 1   
    10     4     5 ar  
    11     4    32 1   
    12     5    10 ar  
    13     5    12 1   
    14     6     7 ar  
    15     6    13 1   
    16     7     8 ar  
    17     7    33 1   
    18     8     9 ar  
    19     8    34 1   
    20     9    14 ar  
    21     9    15 1   
    22    12    20 1   
    23    12    35 1   
    24    13    36 1   
    25    14    37 1   
    26    15    16 1   
    27    16    24 1   
    28    16    38 1   
    29    16    39 1   
    30    17    18 ar  
    31    17    21 ar  
    32    17    40 1   
    33    18    19 ar  
    34    18    41 1   
    35    19    20 ar  
    36    19    53 1   
    37    20    22 ar  
    38    21    22 ar  
    39    21    42 1   
    40    22    23 1   
    41    24    25 1   
    42    24    29 1   
    43    24    43 1   
    44    25    26 1   
    45    25    44 1   
    46    25    45 1   
    47    26    27 1   
    48    26    28 1   
    49    27    46 1   
    50    27    47 1   
    51    27    48 1   
    52    28    49 1   
    53    28    50 1   
    54    28    51 1   
    55    29    52 1   
@<TRIPOS>SUBSTRUCTURE
     1 FAP         1 TEMP              0 ****  ****    0 ROOT
