@<TRIPOS>MOLECULE
FAP
   53    55     1     0     0
SMALL
No Charge or Current Charge


@<TRIPOS>ATOM
      1 C22          0.8870    -0.6890     1.2790 ca         1 FAP      -0.096000
      2 C1          -3.0120    -0.1470    -2.7950 ca         1 FAP       0.193900
      3 C5          -0.8710    -0.1710    -1.9910 ca         1 FAP       0.410900
      4 C4          -0.3850    -0.1830    -3.2970 ca         1 FAP      -0.357000
      5 C3          -1.3240    -0.1470    -4.3300 ca         1 FAP       0.415900
      6 C17         -0.0870    -0.0890     0.4590 ca         1 FAP       0.267000
      7 C18         -1.1170     0.6600     1.0640 ca         1 FAP      -0.096000
      8 C19         -1.1810     0.7850     2.4640 ca         1 FAP      -0.153000
      9 C20         -0.2160     0.1720     3.2790 ca         1 FAP       0.125100
     10 N2          -2.6420    -0.1460    -4.0910 nb         1 FAP      -0.282000
     11 N6          -2.1880    -0.1600    -1.7280 nb         1 FAP      -0.274000
     12 N7          -0.9640    -0.1830    -5.6640 nu         1 FAP      -0.951900
     13 N16          0.0250    -0.2300    -0.9330 nu         1 FAP      -0.940900
     14 C21          0.8260    -0.5680     2.6800 ca         1 FAP      -0.153000
     15 O23         -0.3300     0.3290     4.6450 os         1 FAP      -0.328100
     16 C24          0.6100    -0.2580     5.5670 c3         1 FAP       0.128600
     17 C11          2.6720     0.4780    -7.8070 ca         1 FAP      -0.058000
     18 C10          1.7790    -0.5290    -8.2030 ca         1 FAP      -0.166000
     19 C9           0.5840    -0.7350    -7.4920 ca         1 FAP       0.193000
     20 C8           0.2560     0.0520    -6.3570 ca         1 FAP       0.190000
     21 C12          2.3590     1.2870    -6.7040 ca         1 FAP      -0.166000
     22 C13          1.1660     1.0840    -5.9880 ca         1 FAP       0.193000
     23 F15          0.8850     1.9300    -4.9670 f          1 FAP      -0.159500
     24 C25          0.1960     0.1150     7.0130 c3         1 FAP       0.171300
     25 C26          1.2440    -0.3350     8.0650 c3         1 FAP       0.128800
     26 N27          0.7350    -0.3280     9.4680 n3         1 FAP      -0.702600
     27 C28          1.6390    -1.0500    10.3920 c3         1 FAP       0.148100
     28 C29          0.4100     1.0300     9.9720 c3         1 FAP       0.148100
     29 O30         -1.0530    -0.4950     7.3780 oh         1 FAP      -0.625000
     30 H22          1.6940    -1.2620     0.8290 ha         1 FAP       0.125000
     31 H1L         -4.0810    -0.1410    -2.5900 h5         1 FAP       0.045100
     32 H4           0.6780    -0.2290    -3.5020 ha         1 FAP       0.130000
     33 H18         -1.8610     1.1660     0.4580 ha         1 FAP       0.125000
     34 H19         -1.9790     1.3660     2.9200 ha         1 FAP       0.123000
     35 H7          -1.7110    -0.5620    -6.2500 hn         1 FAP       0.525000
     36 H16          0.9600    -0.4940    -1.2400 hn         1 FAP       0.495000
     37 H21          1.5930    -1.0510     3.2790 ha         1 FAP       0.123000
     38 H241         1.6210     0.1260     5.3750 h1         1 FAP       0.033700
     39 H242         0.6290    -1.3510     5.4610 h1         1 FAP       0.033700
     40 H11          3.5970     0.6390    -8.3600 ha         1 FAP       0.125000
     41 H10          2.0090    -1.1530    -9.0640 ha         1 FAP       0.141000
     42 H12          3.0370     2.0830    -6.4040 ha         1 FAP       0.141000
     43 H25          0.1100     1.2090     7.0710 h1         1 FAP       0.084700
     44 H261         2.1340     0.3030     7.9780 h1         1 FAP       0.033200
     45 H262         1.5590    -1.3550     7.8030 h1         1 FAP       0.033200
     46 H281         1.2080    -1.0950    11.4010 h1         1 FAP       0.032867
     47 H282         1.8020    -2.0800    10.0490 h1         1 FAP       0.032867
     48 H283         2.6150    -0.5490    10.4560 h1         1 FAP       0.032867
     49 H291        -0.3460     1.5180     9.3450 h1         1 FAP       0.032867
     50 H292         0.0090     0.9770    10.9930 h1         1 FAP       0.032867
     51 H293         1.3060     1.6650     9.9890 h1         1 FAP       0.032867
     52 H30         -0.9340    -0.6770     8.3410 ho         1 FAP       0.440000
     53 F14         -0.2560    -1.7140    -7.9070 f          1 FAP      -0.159500
@<TRIPOS>BOND
     1     1     6 ar  
     2     1    14 ar  
     3     1    30 1   
     4     2    10 ar  
     5     2    11 ar  
     6     2    31 1   
     7     3     4 ar  
     8     3    11 ar  
     9     3    13 1   
    10     4     5 ar  
    11     4    32 1   
    12     5    10 ar  
    13     5    12 1   
    14     6     7 ar  
    15     6    13 1   
    16     7     8 ar  
    17     7    33 1   
    18     8     9 ar  
    19     8    34 1   
    20     9    14 ar  
    21     9    15 1   
    22    12    20 1   
    23    12    35 1   
    24    13    36 1   
    25    14    37 1   
    26    15    16 1   
    27    16    24 1   
    28    16    38 1   
    29    16    39 1   
    30    17    18 ar  
    31    17    21 ar  
    32    17    40 1   
    33    18    19 ar  
    34    18    41 1   
    35    19    20 ar  
    36    19    53 1   
    37    20    22 ar  
    38    21    22 ar  
    39    21    42 1   
    40    22    23 1   
    41    24    25 1   
    42    24    29 1   
    43    24    43 1   
    44    25    26 1   
    45    25    44 1   
    46    25    45 1   
    47    26    27 1   
    48    26    28 1   
    49    27    46 1   
    50    27    47 1   
    51    27    48 1   
    52    28    49 1   
    53    28    50 1   
    54    28    51 1   
    55    29    52 1   
@<TRIPOS>SUBSTRUCTURE
     1 FAP         1 TEMP              0 ****  ****    0 ROOT
