@<TRIPOS>MOLECULE
FAR
   41    40     1     0     0
SMALL
abcg2


@<TRIPOS>ATOM
      1 C1          -0.3890     1.3350     6.1010 c3         1 FAR      -0.052900
      2 C2          -0.3940     1.0780     4.6280 c2         1 FAR      -0.219200
      3 C3          -0.5850    -0.0800     3.9900 c2         1 FAR      -0.117400
      4 C5          -0.5270    -0.1300     2.4850 c3         1 FAR      -0.037200
      5 C6           0.7030    -0.8770     1.9440 c3         1 FAR      -0.036200
      6 C7           0.6900    -0.9560     0.4480 c2         1 FAR      -0.222200
      7 C8           1.3080    -0.1440    -0.4140 c2         1 FAR      -0.112400
      8 C9           1.1370    -0.3360    -1.8980 c3         1 FAR      -0.038200
      9 C11          0.1910     0.6970    -2.5320 c3         1 FAR      -0.035200
     10 C12          0.1460     0.5660    -4.0230 c2         1 FAR      -0.224200
     11 C13         -0.8360     0.0560    -4.7720 c2         1 FAR      -0.112400
     12 C14         -0.7050    -0.0270    -6.2660 c3         1 FAR      -0.055900
     13 C15         -2.1300    -0.4800    -4.2350 c3         1 FAR      -0.055900
     14 C4          -0.8490    -1.3910     4.6700 c3         1 FAR      -0.052900
     15 C10          2.1800     1.0080    -0.0110 c3         1 FAR      -0.055900
     16 H11         -0.6290     0.4550     6.6940 hc         1 FAR       0.037700
     17 H12A         0.5890     1.6950     6.4280 hc         1 FAR       0.037700
     18 H13         -1.1070     2.1170     6.3610 hc         1 FAR       0.037700
     19 H2          -0.2110     1.9570     4.0130 ha         1 FAR       0.163000
     20 H51         -1.4320    -0.6130     2.0970 hc         1 FAR       0.044700
     21 H52         -0.5180     0.8860     2.0820 hc         1 FAR       0.044700
     22 H61          1.6040    -0.3830     2.3140 hc         1 FAR       0.044700
     23 H62          0.7230    -1.8920     2.3480 hc         1 FAR       0.044700
     24 H7           0.0740    -1.7500     0.0320 ha         1 FAR       0.165000
     25 H91          2.1130    -0.2730    -2.3920 hc         1 FAR       0.044700
     26 H92          0.7480    -1.3360    -2.1070 hc         1 FAR       0.044700
     27 H111        -0.7990     0.5820    -2.0870 hc         1 FAR       0.044700
     28 H112         0.5280     1.7050    -2.2740 hc         1 FAR       0.044700
     29 H12          1.0430     0.9050    -4.5370 ha         1 FAR       0.164000
     30 H141        -1.5030     0.5340    -6.7590 hc         1 FAR       0.038533
     31 H142         0.2490     0.3630    -6.6180 hc         1 FAR       0.038533
     32 H143        -0.7970    -1.0610    -6.6100 hc         1 FAR       0.038533
     33 H151        -2.2360    -0.3670    -3.1590 hc         1 FAR       0.038533
     34 H152        -2.9790     0.0190    -4.7100 hc         1 FAR       0.038533
     35 H153        -2.2290    -1.5430    -4.4690 hc         1 FAR       0.038533
     36 H41         -0.9890    -1.2960     5.7450 hc         1 FAR       0.038033
     37 H42         -1.7440    -1.8650     4.2590 hc         1 FAR       0.038033
     38 H43         -0.0270    -2.0940     4.5130 hc         1 FAR       0.038033
     39 H101         2.2230     1.1610     1.0650 hc         1 FAR       0.039367
     40 H102         3.2020     0.8610    -0.3700 hc         1 FAR       0.039367
     41 H103         1.8280     1.9410    -0.4580 hc         1 FAR       0.039367
@<TRIPOS>BOND
     1     1     2 1   
     2     1    16 1   
     3     1    17 1   
     4     1    18 1   
     5     2     3 2   
     6     2    19 1   
     7     3     4 1   
     8     3    14 1   
     9     4     5 1   
    10     4    20 1   
    11     4    21 1   
    12     5     6 1   
    13     5    22 1   
    14     5    23 1   
    15     6     7 2   
    16     6    24 1   
    17     7     8 1   
    18     7    15 1   
    19     8     9 1   
    20     8    25 1   
    21     8    26 1   
    22     9    10 1   
    23     9    27 1   
    24     9    28 1   
    25    10    11 2   
    26    10    29 1   
    27    11    12 1   
    28    11    13 1   
    29    12    30 1   
    30    12    31 1   
    31    12    32 1   
    32    13    33 1   
    33    13    34 1   
    34    13    35 1   
    35    14    36 1   
    36    14    37 1   
    37    14    38 1   
    38    15    39 1   
    39    15    40 1   
    40    15    41 1   
@<TRIPOS>SUBSTRUCTURE
     1 FAR         1 TEMP              0 ****  ****    0 ROOT
