@<TRIPOS>MOLECULE
FAR
   41    40     1     0     0
SMALL
No Charge or Current Charge


@<TRIPOS>ATOM
      1 C1           0.0070     1.2260     6.1810 c3         1 FAR      -0.052900
      2 C2          -0.1030     1.0450     4.6770 c2         1 FAR      -0.219200
      3 C3          -0.5970    -0.0070     3.9940 c2         1 FAR      -0.117400
      4 C5          -0.6090    -0.0370     2.4700 c3         1 FAR      -0.037200
      5 C6           0.4600    -0.9770     1.8710 c3         1 FAR      -0.036200
      6 C7           0.4880    -0.9180     0.3540 c2         1 FAR      -0.222200
      7 C8           1.1760    -0.0590    -0.4230 c2         1 FAR      -0.112400
      8 C9           1.1380    -0.1420    -1.9420 c3         1 FAR      -0.038200
      9 C11          0.2130     0.9130    -2.5860 c3         1 FAR      -0.035200
     10 C12          0.1180     0.7500    -4.0930 c2         1 FAR      -0.224200
     11 C13         -0.7450    -0.0220    -4.7800 c2         1 FAR      -0.112400
     12 C14         -0.7560    -0.0750    -6.2970 c3         1 FAR      -0.055900
     13 C15         -1.8000    -0.9290    -4.1640 c3         1 FAR      -0.055900
     14 C4          -1.2120    -1.2570     4.6140 c3         1 FAR      -0.052900
     15 C10          2.0680     1.0650     0.0910 c3         1 FAR      -0.055900
     16 H11         -0.1370     0.2960     6.7400 hc         1 FAR       0.037700
     17 H12A         1.0000     1.6060     6.4490 hc         1 FAR       0.037700
     18 H13         -0.7310     1.9520     6.5410 hc         1 FAR       0.037700
     19 H2           0.3050     1.8930     4.1240 ha         1 FAR       0.163000
     20 H51         -1.6000    -0.3280     2.0990 hc         1 FAR       0.044700
     21 H52         -0.4300     0.9710     2.0770 hc         1 FAR       0.044700
     22 H61          1.4390    -0.7180     2.2890 hc         1 FAR       0.044700
     23 H62          0.2630    -2.0070     2.1900 hc         1 FAR       0.044700
     24 H7          -0.1250    -1.6900    -0.1140 ha         1 FAR       0.165000
     25 H91          2.1490    -0.0470    -2.3580 hc         1 FAR       0.044700
     26 H92          0.7830    -1.1340    -2.2490 hc         1 FAR       0.044700
     27 H111        -0.7790     0.8480    -2.1240 hc         1 FAR       0.044700
     28 H112         0.5840     1.9180    -2.3520 hc         1 FAR       0.044700
     29 H12          0.8400     1.3630    -4.6350 ha         1 FAR       0.164000
     30 H141        -1.7290     0.2380    -6.6960 hc         1 FAR       0.038533
     31 H142         0.0050     0.5830    -6.7340 hc         1 FAR       0.038533
     32 H143        -0.5570    -1.0910    -6.6580 hc         1 FAR       0.038533
     33 H151        -1.7630    -0.9460    -3.0700 hc         1 FAR       0.038533
     34 H152        -2.8090    -0.6100    -4.4520 hc         1 FAR       0.038533
     35 H153        -1.6710    -1.9640    -4.5020 hc         1 FAR       0.038533
     36 H41         -1.3540    -1.1750     5.6960 hc         1 FAR       0.038033
     37 H42         -2.2010    -1.4610     4.1860 hc         1 FAR       0.038033
     38 H43         -0.5860    -2.1380     4.4350 hc         1 FAR       0.038033
     39 H101         2.0830     1.1320     1.1840 hc         1 FAR       0.039367
     40 H102         3.1050     0.9240    -0.2380 hc         1 FAR       0.039367
     41 H103         1.7330     2.0410    -0.2780 hc         1 FAR       0.039367
@<TRIPOS>BOND
     1     1     2 1   
     2     1    16 1   
     3     1    17 1   
     4     1    18 1   
     5     2     3 2   
     6     2    19 1   
     7     3     4 1   
     8     3    14 1   
     9     4     5 1   
    10     4    20 1   
    11     4    21 1   
    12     5     6 1   
    13     5    22 1   
    14     5    23 1   
    15     6     7 2   
    16     6    24 1   
    17     7     8 1   
    18     7    15 1   
    19     8     9 1   
    20     8    25 1   
    21     8    26 1   
    22     9    10 1   
    23     9    27 1   
    24     9    28 1   
    25    10    11 2   
    26    10    29 1   
    27    11    12 1   
    28    11    13 1   
    29    12    30 1   
    30    12    31 1   
    31    12    32 1   
    32    13    33 1   
    33    13    34 1   
    34    13    35 1   
    35    14    36 1   
    36    14    37 1   
    37    14    38 1   
    38    15    39 1   
    39    15    40 1   
    40    15    41 1   
@<TRIPOS>SUBSTRUCTURE
     1 FAR         1 TEMP              0 ****  ****    0 ROOT
