@<TRIPOS>MOLECULE
FAS
   84    89     1     0     0
SMALL
No Charge or Current Charge


@<TRIPOS>ATOM
      1 PA          -3.0000    -2.4790    -2.6520 p5         1 FAS       1.461800
      2 O1A         -1.5320    -2.7230    -2.5440 o          1 FAS      -0.851500
      3 O2A         -3.6340    -3.1880    -3.8040 o          1 FAS      -0.851500
      4 O5B         -3.3020    -0.9030    -2.7800 os         1 FAS      -0.558400
      5 C5B         -2.7850    -0.1860    -3.9110 c3         1 FAS       0.215600
      6 C4B         -1.9440     1.0260    -3.4220 c5         1 FAS       0.156300
      7 O4B         -0.6510     0.5660    -2.9240 os         1 FAS      -0.409000
      8 C3B         -1.6200     2.0570    -4.5660 c5         1 FAS       0.098300
      9 O3B         -1.5450     3.4090    -4.0900 oh         1 FAS      -0.713000
     10 C2B         -0.2160     1.5610    -5.0080 c5         1 FAS       0.067300
     11 O2B          0.4890     2.5470    -5.7900 oh         1 FAS      -0.705000
     12 C1B          0.3880     1.3060    -3.5910 c5         1 FAS       0.324300
     13 N9A          1.6560     0.5830    -3.4950 na         1 FAS      -0.293300
     14 C8A          2.3220    -0.0670    -4.5430 cc         1 FAS       0.467700
     15 N7A          3.5090    -0.5670    -4.1340 nd         1 FAS      -0.571100
     16 C5A          3.5650    -0.2000    -2.7860 ca         1 FAS      -0.080600
     17 C6A          4.5770    -0.4350    -1.8310 ca         1 FAS       0.432900
     18 N6A          5.7230    -1.1080    -2.1230 nv         1 FAS      -1.082900
     19 N1A          4.4540     0.0020    -0.5680 nb         1 FAS      -0.328000
     20 C2A          3.3130     0.6750    -0.2790 ca         1 FAS       0.144900
     21 N3A          2.2960     0.9500    -1.1290 nb         1 FAS      -0.208000
     22 C4A          2.4490     0.4920    -2.3880 ca         1 FAS       0.105500
     23 N1          -1.4090     1.1570     4.8520 nc         1 FAS      -0.448400
     24 C2          -2.3210     2.1070     5.2660 c          1 FAS       0.732400
     25 O2          -3.4390     1.8120     5.6450 o          1 FAS      -0.507000
     26 N3          -1.9130     3.4030     5.2360 ns         1 FAS      -0.499500
     27 C4          -0.6980     3.8960     4.8440 c          1 FAS       0.487500
     28 O4          -0.4770     5.1000     4.8690 o          1 FAS      -0.513000
     29 C4X          0.2720     2.8320     4.4130 cd         1 FAS       0.209500
     30 N5           1.4960     3.2020     4.0160 nc         1 FAS      -0.530000
     31 C5X          2.3190     2.1160     3.6940 ca         1 FAS       0.153000
     32 C6           3.6350     2.4550     3.3270 ca         1 FAS      -0.021000
     33 C7           4.5970     1.4800     3.0200 ca         1 FAS      -0.116300
     34 C7M          6.0080     1.9140     2.6280 c3         1 FAS      -0.039800
     35 C8           4.2300     0.1210     3.0720 ca         1 FAS      -0.005300
     36 C8M          5.2350    -0.9850     2.7660 c3         1 FAS      -0.058800
     37 C9           2.9140    -0.2310     3.4200 ca         1 FAS      -0.155000
     38 C9A          1.9310     0.7450     3.7330 ca         1 FAS       0.032000
     39 N10          0.6120     0.3590     4.0770 na         1 FAS       0.006000
     40 C10         -0.1760     1.4590     4.4530 cd         1 FAS       0.114000
     41 C1           0.1040    -1.0420     3.9720 c3         1 FAS       0.019600
     42 C11         -0.5370    -1.3570     2.5940 c3         1 FAS       0.129300
     43 O6           0.4930    -1.5640     1.6170 oh         1 FAS      -0.703000
     44 C3          -1.4190    -2.6400     2.6290 c3         1 FAS       0.094300
     45 O3          -0.5370    -3.7820     2.7530 oh         1 FAS      -0.680000
     46 C12         -2.3410    -2.8120     1.3770 c3         1 FAS       0.139300
     47 O7          -3.1740    -1.6480     1.1870 oh         1 FAS      -0.693000
     48 C5          -3.2410    -4.0860     1.4980 c3         1 FAS       0.197600
     49 O5          -4.3310    -4.0730     0.5550 os         1 FAS      -0.563400
     50 P           -4.1010    -4.1870    -1.0370 p5         1 FAS       1.454800
     51 O1P         -5.3960    -4.5590    -1.6770 o          1 FAS      -0.847500
     52 O2P         -3.0120    -5.1710    -1.3110 o          1 FAS      -0.847500
     53 O8          -3.7370    -2.6690    -1.2680 os         1 FAS      -0.682800
     54 H51A        -2.1640    -0.8230    -4.5540 h1         1 FAS       0.011200
     55 H52A        -3.6180     0.1860    -4.5210 h1         1 FAS       0.011200
     56 H4B         -2.4940     1.5180    -2.6090 h1         1 FAS       0.096700
     57 H3B         -2.3430     1.9900    -5.3920 h1         1 FAS       0.049700
     58 HO3A        -0.8180     3.8200    -4.6190 ho         1 FAS       0.501000
     59 H2B         -0.3010     0.6120    -5.5600 h1         1 FAS       0.072700
     60 HO2A         0.1720     2.4750    -6.7230 ho         1 FAS       0.498000
     61 H1B          0.5430     2.2620    -3.0740 h2         1 FAS       0.094700
     62 H8A          1.9160    -0.1330    -5.5470 h5         1 FAS       0.158800
     63 H61A         6.2620    -1.4900    -1.3510 hn         1 FAS       0.497000
     64 H62A         5.7440    -1.6250    -2.9980 hn         1 FAS       0.497000
     65 H2A          3.2020     1.0400     0.7390 h5         1 FAS       0.022100
     66 HM71         6.7650     1.3740     3.2090 hc         1 FAS       0.041367
     67 HM72         6.1950     1.7210     1.5650 hc         1 FAS       0.041367
     68 HM73         6.1750     2.9850     2.7980 hc         1 FAS       0.041367
     69 HM81         5.8950    -0.7210     1.9330 hc         1 FAS       0.051033
     70 HM82         5.8610    -1.1900     3.6420 hc         1 FAS       0.051033
     71 HM83         4.7370    -1.9220     2.4890 hc         1 FAS       0.051033
     72 H9           2.6800    -1.2890     3.4360 ha         1 FAS       0.138000
     73 H1'1         0.8800    -1.7730     4.2170 h1         1 FAS       0.083700
     74 H1'2        -0.6570    -1.1930     4.7470 h1         1 FAS       0.083700
     75 H2          -1.1750    -0.5050     2.3180 h1         1 FAS       0.119700
     76 HO2          0.6230    -2.5430     1.6340 ho         1 FAS       0.490000
     77 H3          -2.0770    -2.5700     3.5100 h1         1 FAS       0.072700
     78 HO3         -0.9830    -4.4490     3.3230 ho         1 FAS       0.454000
     79 H4          -1.6880    -2.9400     0.5000 h1         1 FAS       0.086700
     80 HO4         -3.6220    -1.8110     0.3080 ho         1 FAS       0.500000
     81 H5'1        -2.6170    -4.9790     1.3560 h1         1 FAS       0.018200
     82 H5'2        -3.6490    -4.1400     2.5170 h1         1 FAS       0.018200
     83 HN3         -2.5940     4.0810     5.5440 hn         1 FAS       0.332500
     84 H6           3.9140     3.5070     3.2920 ha         1 FAS       0.133000
@<TRIPOS>BOND
     1     1     2 1   
     2     1     3 1   
     3     1     4 1   
     4     1    53 1   
     5     4     5 1   
     6     5     6 1   
     7     5    54 1   
     8     5    55 1   
     9     6     7 1   
    10     6     8 1   
    11     6    56 1   
    12     7    12 1   
    13     8     9 1   
    14     8    10 1   
    15     8    57 1   
    16     9    58 1   
    17    10    11 1   
    18    10    12 1   
    19    10    59 1   
    20    11    60 1   
    21    12    13 1   
    22    12    61 1   
    23    13    14 1   
    24    13    22 1   
    25    14    15 2   
    26    14    62 1   
    27    15    16 1   
    28    16    17 ar  
    29    16    22 ar  
    30    17    18 1   
    31    17    19 ar  
    32    18    63 1   
    33    18    64 1   
    34    19    20 ar  
    35    20    21 ar  
    36    20    65 1   
    37    21    22 ar  
    38    23    24 1   
    39    23    40 2   
    40    24    25 2   
    41    24    26 1   
    42    26    27 1   
    43    26    83 1   
    44    27    28 2   
    45    27    29 1   
    46    29    30 2   
    47    29    40 1   
    48    30    31 1   
    49    31    32 ar  
    50    31    38 ar  
    51    32    33 ar  
    52    32    84 1   
    53    33    34 1   
    54    33    35 ar  
    55    34    66 1   
    56    34    67 1   
    57    34    68 1   
    58    35    36 1   
    59    35    37 ar  
    60    36    69 1   
    61    36    70 1   
    62    36    71 1   
    63    37    38 ar  
    64    37    72 1   
    65    38    39 1   
    66    39    40 1   
    67    39    41 1   
    68    41    42 1   
    69    41    73 1   
    70    41    74 1   
    71    42    43 1   
    72    42    44 1   
    73    42    75 1   
    74    43    76 1   
    75    44    45 1   
    76    44    46 1   
    77    44    77 1   
    78    45    78 1   
    79    46    47 1   
    80    46    48 1   
    81    46    79 1   
    82    47    80 1   
    83    48    49 1   
    84    48    81 1   
    85    48    82 1   
    86    49    50 1   
    87    50    51 1   
    88    50    52 1   
    89    50    53 1   
@<TRIPOS>SUBSTRUCTURE
     1 FAS         1 TEMP              0 ****  ****    0 ROOT
