@<TRIPOS>MOLECULE
FAS
   84    89     1     0     0
SMALL
abcg2


@<TRIPOS>ATOM
      1 PA          -2.6690    -2.7430    -3.9430 p5         1 FAS       1.461800
      2 O1A         -1.2370    -2.9650    -4.3310 o          1 FAS      -0.851500
      3 O2A         -3.6780    -3.8280    -4.1470 o          1 FAS      -0.851500
      4 O5B         -3.2040    -1.3460    -4.6300 os         1 FAS      -0.558400
      5 C5B         -3.1360    -1.2360    -6.0310 c3         1 FAS       0.215600
      6 C4B         -2.9490     0.2240    -6.4020 c5         1 FAS       0.156300
      7 O4B         -1.7950     0.7720    -5.7560 os         1 FAS      -0.409000
      8 C3B         -2.7110     0.4010    -7.8940 c5         1 FAS       0.098300
      9 O3B         -3.1320     1.6840    -8.2750 oh         1 FAS      -0.713000
     10 C2B         -1.1850     0.2830    -7.9600 c5         1 FAS       0.067300
     11 O2B         -0.5940     0.8920    -9.0680 oh         1 FAS      -0.705000
     12 C1B         -0.7770     1.0150    -6.6800 c5         1 FAS       0.324300
     13 N9A          0.4810     0.5680    -6.1280 na         1 FAS      -0.293300
     14 C8A          0.7230    -0.5790    -5.4180 cc         1 FAS       0.467700
     15 N7A          1.9740    -0.7110    -5.0790 nd         1 FAS      -0.571100
     16 C5A          2.5910     0.4000    -5.5920 ca         1 FAS      -0.080600
     17 C6A          3.9230     0.8520    -5.5680 ca         1 FAS       0.432900
     18 N6A          4.9040     0.1750    -4.9670 nv         1 FAS      -1.082900
     19 N1A          4.2030     2.0120    -6.1720 nb         1 FAS      -0.328000
     20 C2A          3.2200     2.6890    -6.7600 ca         1 FAS       0.144900
     21 N3A          1.9410     2.3700    -6.8490 nb         1 FAS      -0.208000
     22 C4A          1.6790     1.2110    -6.2470 ca         1 FAS       0.105500
     23 N1          -1.4260     0.9710     6.6490 nc         1 FAS      -0.448400
     24 C2          -2.2840     1.8920     7.1580 c          1 FAS       0.732400
     25 O2          -3.4850     1.8360     6.9810 o          1 FAS      -0.507000
     26 N3          -1.7660     2.9480     7.9130 ns         1 FAS      -0.499500
     27 C4          -0.4560     3.1690     8.2100 c          1 FAS       0.487500
     28 O4          -0.0730     4.1090     8.8720 o          1 FAS      -0.513000
     29 C4X          0.4510     2.1460     7.6440 cd         1 FAS       0.209500
     30 N5           1.7170     2.2610     7.8560 nc         1 FAS      -0.530000
     31 C5X          2.5460     1.3300     7.3360 ca         1 FAS       0.153000
     32 C6           3.9270     1.4590     7.5680 ca         1 FAS      -0.021000
     33 C7           4.8280     0.5520     7.0740 ca         1 FAS      -0.116300
     34 C7M          6.2950     0.7000     7.3360 c3         1 FAS      -0.039800
     35 C8           4.3350    -0.5370     6.3090 ca         1 FAS      -0.005300
     36 C8M          5.2880    -1.5440     5.7480 c3         1 FAS      -0.058800
     37 C9           2.9820    -0.6750     6.0710 ca         1 FAS      -0.155000
     38 C9A          2.0580     0.2470     6.5740 ca         1 FAS       0.032000
     39 N10          0.7000     0.1480     6.3770 na         1 FAS       0.006000
     40 C10         -0.1480     1.0820     6.8790 cd         1 FAS       0.114000
     41 C1           0.1260    -0.9330     5.5780 c3         1 FAS       0.019600
     42 C11         -0.1080    -0.4910     4.1300 c3         1 FAS       0.129300
     43 O6           1.0330     0.1060     3.5660 oh         1 FAS      -0.703000
     44 C3          -0.6220    -1.6820     3.3140 c3         1 FAS       0.094300
     45 O3           0.3430    -2.7150     3.2790 oh         1 FAS      -0.680000
     46 C12         -1.0710    -1.2730     1.9010 c3         1 FAS       0.139300
     47 O7          -1.9670    -0.1910     1.9450 oh         1 FAS      -0.693000
     48 C5          -1.6630    -2.4620     1.1580 c3         1 FAS       0.197600
     49 O5          -1.9490    -2.0650    -0.1660 os         1 FAS      -0.563400
     50 P           -2.8430    -3.0970    -1.0830 p5         1 FAS       1.454800
     51 O1P         -4.2480    -3.1280    -0.5720 o          1 FAS      -0.847500
     52 O2P         -2.0820    -4.3670    -1.3010 o          1 FAS      -0.847500
     53 O8          -2.7680    -2.1450    -2.4210 os         1 FAS      -0.682800
     54 H51A        -2.3170    -1.8380    -6.4430 h1         1 FAS       0.011200
     55 H52A        -4.0620    -1.5900    -6.4990 h1         1 FAS       0.011200
     56 H4B         -3.8230     0.7940    -6.0720 h1         1 FAS       0.096700
     57 H3B         -3.2070    -0.3830    -8.4820 h1         1 FAS       0.049700
     58 HO3A        -2.6720     1.9180    -9.0900 ho         1 FAS       0.501000
     59 H2B         -0.9010    -0.7740    -7.8800 h1         1 FAS       0.072700
     60 HO2A        -0.6320     0.2830    -9.8130 ho         1 FAS       0.498000
     61 H1B         -0.6580     2.0860    -6.8800 h2         1 FAS       0.094700
     62 H8A         -0.0610    -1.2790    -5.1550 h5         1 FAS       0.158800
     63 H61A         5.8480     0.5180    -4.9950 hn         1 FAS       0.497000
     64 H62A         4.7300    -0.7100    -4.5250 hn         1 FAS       0.497000
     65 H2A          3.5130     3.6240    -7.2260 h5         1 FAS       0.022100
     66 HM71         6.6900    -0.1540     7.8890 hc         1 FAS       0.041367
     67 HM72         6.8630     0.7660     6.4060 hc         1 FAS       0.041367
     68 HM73         6.5000     1.5970     7.9170 hc         1 FAS       0.041367
     69 HM81         6.0210    -1.0700     5.0940 hc         1 FAS       0.051033
     70 HM82         5.8480    -2.0420     6.5420 hc         1 FAS       0.051033
     71 HM83         4.7690    -2.3090     5.1750 hc         1 FAS       0.051033
     72 H9           2.6620    -1.5290     5.4920 ha         1 FAS       0.138000
     73 H1'1         0.7770    -1.8000     5.6410 h1         1 FAS       0.083700
     74 H1'2        -0.8220    -1.2130     6.0330 h1         1 FAS       0.083700
     75 H2          -0.8790     0.2810     4.1390 h1         1 FAS       0.119700
     76 HO2          1.7170    -0.5600     3.4370 ho         1 FAS       0.490000
     77 H3          -1.4920    -2.0910     3.8440 h1         1 FAS       0.072700
     78 HO3          0.9210    -2.5990     2.5170 ho         1 FAS       0.454000
     79 H4          -0.1950    -0.9120     1.3490 h1         1 FAS       0.086700
     80 HO4         -2.8010    -0.4920     2.3230 ho         1 FAS       0.500000
     81 H5'1        -0.9620    -3.3020     1.1660 h1         1 FAS       0.018200
     82 H5'2        -2.5700    -2.7920     1.6830 h1         1 FAS       0.018200
     83 HN3         -2.4400     3.6140     8.2700 hn         1 FAS       0.332500
     84 H6           4.2560     2.3080     8.1530 ha         1 FAS       0.133000
@<TRIPOS>BOND
     1     1     2 1   
     2     1     3 1   
     3     1     4 1   
     4     1    53 1   
     5     4     5 1   
     6     5     6 1   
     7     5    54 1   
     8     5    55 1   
     9     6     7 1   
    10     6     8 1   
    11     6    56 1   
    12     7    12 1   
    13     8     9 1   
    14     8    10 1   
    15     8    57 1   
    16     9    58 1   
    17    10    11 1   
    18    10    12 1   
    19    10    59 1   
    20    11    60 1   
    21    12    13 1   
    22    12    61 1   
    23    13    14 1   
    24    13    22 1   
    25    14    15 2   
    26    14    62 1   
    27    15    16 1   
    28    16    17 ar  
    29    16    22 ar  
    30    17    18 1   
    31    17    19 ar  
    32    18    63 1   
    33    18    64 1   
    34    19    20 ar  
    35    20    21 ar  
    36    20    65 1   
    37    21    22 ar  
    38    23    24 1   
    39    23    40 2   
    40    24    25 2   
    41    24    26 1   
    42    26    27 1   
    43    26    83 1   
    44    27    28 2   
    45    27    29 1   
    46    29    30 2   
    47    29    40 1   
    48    30    31 1   
    49    31    32 ar  
    50    31    38 ar  
    51    32    33 ar  
    52    32    84 1   
    53    33    34 1   
    54    33    35 ar  
    55    34    66 1   
    56    34    67 1   
    57    34    68 1   
    58    35    36 1   
    59    35    37 ar  
    60    36    69 1   
    61    36    70 1   
    62    36    71 1   
    63    37    38 ar  
    64    37    72 1   
    65    38    39 1   
    66    39    40 1   
    67    39    41 1   
    68    41    42 1   
    69    41    73 1   
    70    41    74 1   
    71    42    43 1   
    72    42    44 1   
    73    42    75 1   
    74    43    76 1   
    75    44    45 1   
    76    44    46 1   
    77    44    77 1   
    78    45    78 1   
    79    46    47 1   
    80    46    48 1   
    81    46    79 1   
    82    47    80 1   
    83    48    49 1   
    84    48    81 1   
    85    48    82 1   
    86    49    50 1   
    87    50    51 1   
    88    50    52 1   
    89    50    53 1   
@<TRIPOS>SUBSTRUCTURE
     1 FAS         1 TEMP              0 ****  ****    0 ROOT
