@<TRIPOS>MOLECULE
FAT
   49    48     1     0     0
SMALL
abcg2


@<TRIPOS>ATOM
      1 C1           0.0700     0.0030    -8.4270 c          1 FAT       0.717000
      2 OE1          1.3040     0.1840    -8.4190 o          1 FAT      -0.744000
      3 OE2         -0.6440    -0.1610    -9.4390 o          1 FAT      -0.744000
      4 C2          -0.6640    -0.0050    -7.0740 c3         1 FAT      -0.204400
      5 C3           0.2150     0.0020    -5.8350 c3         1 FAT      -0.053400
      6 C4          -0.5890    -0.0030    -4.5400 c3         1 FAT      -0.079400
      7 C5           0.2810    -0.0000    -3.2890 c3         1 FAT      -0.075400
      8 C6          -0.5230     0.0000    -1.9950 c3         1 FAT      -0.075400
      9 C7           0.3450    -0.0030    -0.7430 c3         1 FAT      -0.075400
     10 C8          -0.4620     0.0020     0.5490 c3         1 FAT      -0.074400
     11 C9           0.4050    -0.0040     1.8030 c3         1 FAT      -0.074400
     12 C10         -0.4060    -0.0030     3.0930 c3         1 FAT      -0.074400
     13 C11          0.4570    -0.0090     4.3480 c3         1 FAT      -0.074400
     14 C12         -0.3570    -0.0060     5.6360 c3         1 FAT      -0.074400
     15 C13          0.5010    -0.0120     6.8950 c3         1 FAT      -0.074400
     16 C14         -0.3180    -0.0120     8.1790 c3         1 FAT      -0.076400
     17 C15          0.5340    -0.0160     9.4430 c3         1 FAT      -0.075400
     18 C16         -0.3030    -0.0130    10.7160 c3         1 FAT      -0.088100
     19 H21         -1.3340    -0.8720    -7.0480 hc         1 FAT       0.014200
     20 H22         -1.3310     0.8660    -7.0510 hc         1 FAT       0.014200
     21 H31          0.8690     0.8790    -5.8490 hc         1 FAT       0.037700
     22 H32          0.8810    -0.8670    -5.8470 hc         1 FAT       0.037700
     23 H41         -1.2460    -0.8800    -4.5200 hc         1 FAT       0.023700
     24 H42         -1.2540     0.8700    -4.5200 hc         1 FAT       0.023700
     25 H51          0.9400     0.8760    -3.3070 hc         1 FAT       0.034200
     26 H52          0.9420    -0.8750    -3.3050 hc         1 FAT       0.034200
     27 H61         -1.1850    -0.8730    -1.9790 hc         1 FAT       0.031700
     28 H62         -1.1810     0.8770    -1.9770 hc         1 FAT       0.031700
     29 H71          1.0090     0.8690    -0.7600 hc         1 FAT       0.035200
     30 H72          1.0010    -0.8810    -0.7590 hc         1 FAT       0.035200
     31 H81         -1.1270    -0.8690     0.5640 hc         1 FAT       0.034700
     32 H82         -1.1150     0.8810     0.5650 hc         1 FAT       0.034700
     33 H91          1.0670     0.8690     1.7890 hc         1 FAT       0.035700
     34 H92          1.0610    -0.8820     1.7860 hc         1 FAT       0.035700
     35 H101        -1.0690    -0.8760     3.1050 hc         1 FAT       0.035700
     36 H102        -1.0620     0.8750     3.1080 hc         1 FAT       0.035700
     37 H111         1.1210     0.8630     4.3370 hc         1 FAT       0.036700
     38 H112         1.1120    -0.8870     4.3350 hc         1 FAT       0.036700
     39 H121        -1.0220    -0.8770     5.6470 hc         1 FAT       0.036200
     40 H122        -1.0120     0.8740     5.6490 hc         1 FAT       0.036200
     41 H131         1.1630     0.8620     6.8870 hc         1 FAT       0.036700
     42 H132         1.1580    -0.8890     6.8830 hc         1 FAT       0.036700
     43 H141        -0.9800    -0.8850     8.1880 hc         1 FAT       0.036700
     44 H142        -0.9760     0.8650     8.1900 hc         1 FAT       0.036700
     45 H151         1.1950     0.8560     9.4360 hc         1 FAT       0.036200
     46 H152         1.1880    -0.8930     9.4350 hc         1 FAT       0.036200
     47 H161         0.3210    -0.0160    11.6100 hc         1 FAT       0.029700
     48 H162        -0.9430     0.8700    10.7620 hc         1 FAT       0.029700
     49 H163        -0.9500    -0.8910    10.7620 hc         1 FAT       0.029700
@<TRIPOS>BOND
     1     1     2 1   
     2     1     3 1   
     3     1     4 1   
     4     4     5 1   
     5     4    19 1   
     6     4    20 1   
     7     5     6 1   
     8     5    21 1   
     9     5    22 1   
    10     6     7 1   
    11     6    23 1   
    12     6    24 1   
    13     7     8 1   
    14     7    25 1   
    15     7    26 1   
    16     8     9 1   
    17     8    27 1   
    18     8    28 1   
    19     9    10 1   
    20     9    29 1   
    21     9    30 1   
    22    10    11 1   
    23    10    31 1   
    24    10    32 1   
    25    11    12 1   
    26    11    33 1   
    27    11    34 1   
    28    12    13 1   
    29    12    35 1   
    30    12    36 1   
    31    13    14 1   
    32    13    37 1   
    33    13    38 1   
    34    14    15 1   
    35    14    39 1   
    36    14    40 1   
    37    15    16 1   
    38    15    41 1   
    39    15    42 1   
    40    16    17 1   
    41    16    43 1   
    42    16    44 1   
    43    17    18 1   
    44    17    45 1   
    45    17    46 1   
    46    18    47 1   
    47    18    48 1   
    48    18    49 1   
@<TRIPOS>SUBSTRUCTURE
     1 FAT         1 TEMP              0 ****  ****    0 ROOT
