@<TRIPOS>MOLECULE
FAT
   49    48     1     0     0
SMALL
No Charge or Current Charge


@<TRIPOS>ATOM
      1 C1           0.1850    -0.0080    -8.4620 c          1 FAT       0.717000
      2 OE1          0.6190     1.0390    -8.9190 o          1 FAT      -0.744000
      3 OE2          0.4500    -1.1080    -8.9230 o          1 FAT      -0.744000
      4 C2          -0.6960     0.0600    -7.2010 c3         1 FAT      -0.204400
      5 C3           0.1850    -0.0120    -5.9290 c3         1 FAT      -0.053400
      6 C4          -0.6320     0.0500    -4.6190 c3         1 FAT      -0.079400
      7 C5           0.2490    -0.0210    -3.3520 c3         1 FAT      -0.075400
      8 C6          -0.5680     0.0410    -2.0430 c3         1 FAT      -0.075400
      9 C7           0.3130    -0.0310    -0.7770 c3         1 FAT      -0.075400
     10 C8          -0.5040     0.0320     0.5320 c3         1 FAT      -0.074400
     11 C9           0.3770    -0.0400     1.7990 c3         1 FAT      -0.074400
     12 C10         -0.4410     0.0220     3.1080 c3         1 FAT      -0.074400
     13 C11          0.4400    -0.0490     4.3740 c3         1 FAT      -0.074400
     14 C12         -0.3770     0.0130     5.6830 c3         1 FAT      -0.074400
     15 C13          0.5040    -0.0580     6.9500 c3         1 FAT      -0.074400
     16 C14         -0.3130     0.0050     8.2590 c3         1 FAT      -0.076400
     17 C15          0.5680    -0.0660     9.5250 c3         1 FAT      -0.075400
     18 C16         -0.2470    -0.0040    10.8320 c3         1 FAT      -0.088100
     19 H21         -1.3640    -0.8090    -7.1520 hc         1 FAT       0.014200
     20 H22         -1.2200     1.0220    -7.1490 hc         1 FAT       0.014200
     21 H31          0.9060     0.8150    -5.9430 hc         1 FAT       0.037700
     22 H32          0.7670    -0.9420    -5.9460 hc         1 FAT       0.037700
     23 H41         -1.3520    -0.7770    -4.6040 hc         1 FAT       0.023700
     24 H42         -1.2130     0.9810    -4.6010 hc         1 FAT       0.023700
     25 H51          0.9690     0.8070    -3.3670 hc         1 FAT       0.034200
     26 H52          0.8300    -0.9520    -3.3700 hc         1 FAT       0.034200
     27 H61         -1.2880    -0.7870    -2.0280 hc         1 FAT       0.031700
     28 H62         -1.1490     0.9720    -2.0250 hc         1 FAT       0.031700
     29 H71          1.0330     0.7970    -0.7910 hc         1 FAT       0.035200
     30 H72          0.8940    -0.9610    -0.7940 hc         1 FAT       0.035200
     31 H81         -1.2240    -0.7960     0.5470 hc         1 FAT       0.034700
     32 H82         -1.0850     0.9620     0.5500 hc         1 FAT       0.034700
     33 H91          1.0970     0.7880     1.7840 hc         1 FAT       0.035700
     34 H92          0.9580    -0.9710     1.7810 hc         1 FAT       0.035700
     35 H101        -1.1600    -0.8060     3.1230 hc         1 FAT       0.035700
     36 H102        -1.0220     0.9530     3.1250 hc         1 FAT       0.035700
     37 H111         1.1600     0.7790     4.3590 hc         1 FAT       0.036700
     38 H112         1.0220    -0.9790     4.3570 hc         1 FAT       0.036700
     39 H121        -1.0970    -0.8150     5.6980 hc         1 FAT       0.036200
     40 H122        -0.9580     0.9440     5.7010 hc         1 FAT       0.036200
     41 H131         1.2240     0.7700     6.9350 hc         1 FAT       0.036700
     42 H132         1.0860    -0.9880     6.9320 hc         1 FAT       0.036700
     43 H141        -1.0330    -0.8230     8.2740 hc         1 FAT       0.036700
     44 H142        -0.8940     0.9350     8.2770 hc         1 FAT       0.036700
     45 H151         1.2880     0.7610     9.5150 hc         1 FAT       0.036200
     46 H152         1.1490    -0.9970     9.5130 hc         1 FAT       0.036200
     47 H161         0.4190    -0.0580    11.7010 hc         1 FAT       0.029700
     48 H162        -0.8140     0.9330    10.8910 hc         1 FAT       0.029700
     49 H163        -0.9540    -0.8410    10.8890 hc         1 FAT       0.029700
@<TRIPOS>BOND
     1     1     2 1   
     2     1     3 1   
     3     1     4 1   
     4     4     5 1   
     5     4    19 1   
     6     4    20 1   
     7     5     6 1   
     8     5    21 1   
     9     5    22 1   
    10     6     7 1   
    11     6    23 1   
    12     6    24 1   
    13     7     8 1   
    14     7    25 1   
    15     7    26 1   
    16     8     9 1   
    17     8    27 1   
    18     8    28 1   
    19     9    10 1   
    20     9    29 1   
    21     9    30 1   
    22    10    11 1   
    23    10    31 1   
    24    10    32 1   
    25    11    12 1   
    26    11    33 1   
    27    11    34 1   
    28    12    13 1   
    29    12    35 1   
    30    12    36 1   
    31    13    14 1   
    32    13    37 1   
    33    13    38 1   
    34    14    15 1   
    35    14    39 1   
    36    14    40 1   
    37    15    16 1   
    38    15    41 1   
    39    15    42 1   
    40    16    17 1   
    41    16    43 1   
    42    16    44 1   
    43    17    18 1   
    44    17    45 1   
    45    17    46 1   
    46    18    47 1   
    47    18    48 1   
    48    18    49 1   
@<TRIPOS>SUBSTRUCTURE
     1 FAT         1 TEMP              0 ****  ****    0 ROOT
