@<TRIPOS>MOLECULE
FAW
   96    95     1     0     0
SMALL
abcg2


@<TRIPOS>ATOM
      1 OA1          2.8640    -3.5240     1.8620 o          1 FAW      -0.497000
      2 CA1          2.5530    -3.0790     0.7850 c          1 FAW       0.590100
      3 CA2          3.3850    -2.1230    -0.0270 c3         1 FAW      -0.135400
      4 CA3          4.6810    -1.7290     0.6640 c3         1 FAW      -0.070400
      5 CA4          5.5590    -0.8270    -0.1930 c3         1 FAW      -0.074400
      6 CA5          6.8550    -0.4560     0.5170 c3         1 FAW      -0.075400
      7 CA6          7.7880     0.4190    -0.3090 c3         1 FAW      -0.073400
      8 CA7          9.0760     0.7610     0.4310 c3         1 FAW      -0.075400
      9 CA8         10.0390     1.6240    -0.3740 c3         1 FAW      -0.073400
     10 CA9         11.3200     1.9450     0.3860 c3         1 FAW      -0.074400
     11 CAA         12.3000     2.8030    -0.4030 c3         1 FAW      -0.074400
     12 CBA         13.5790     3.1110     0.3670 c3         1 FAW      -0.075400
     13 CCA         14.5670     3.9660    -0.4160 c3         1 FAW      -0.075400
     14 C33         15.8480     4.2640     0.3540 c3         1 FAW      -0.075400
     15 C34         16.8280     5.1170    -0.4400 c3         1 FAW      -0.088100
     16 OG1          1.4190    -3.3970     0.1690 os         1 FAW      -0.415100
     17 CG1          0.5760    -4.3430     0.8200 c3         1 FAW       0.167600
     18 CG2         -0.6360    -4.6520    -0.0270 c3         1 FAW       0.173300
     19 CG3         -0.3630    -5.2690    -1.3870 c3         1 FAW       0.147600
     20 OXT          0.2310    -4.3380    -2.2520 oh         1 FAW      -0.634000
     21 OG2         -1.4020    -3.4470    -0.1530 os         1 FAW      -0.427100
     22 CB1         -2.7300    -3.5380    -0.1990 c          1 FAW       0.593100
     23 OB1         -3.3280    -4.5830    -0.1390 o          1 FAW      -0.498000
     24 CB2         -3.3760    -2.1870    -0.3440 c3         1 FAW      -0.136400
     25 CB3         -4.8750    -2.2130    -0.0890 c3         1 FAW      -0.069400
     26 CB4         -5.5230    -0.8460    -0.2720 c3         1 FAW      -0.075400
     27 CB5         -7.0190    -0.8750     0.0130 c3         1 FAW      -0.075400
     28 CB6         -7.7090     0.4670    -0.1970 c3         1 FAW      -0.073400
     29 CB7         -9.2010     0.4190     0.1090 c3         1 FAW      -0.074400
     30 CB8         -9.9150     1.7440    -0.1230 c3         1 FAW      -0.073400
     31 CB9        -11.4040     1.6830     0.1930 c3         1 FAW      -0.074400
     32 CAB        -12.1320     2.9970    -0.0560 c3         1 FAW      -0.074400
     33 CBB        -13.6200     2.9270     0.2620 c3         1 FAW      -0.074400
     34 CCB        -14.3570     4.2350     0.0010 c3         1 FAW      -0.075400
     35 C35        -15.8450     4.1620     0.3180 c3         1 FAW      -0.075400
     36 C36        -16.5750     5.4700     0.0460 c3         1 FAW      -0.088100
     37 H1           3.5910    -2.5920    -0.9940 hc         1 FAW       0.074200
     38 H2           2.7810    -1.2390    -0.2550 hc         1 FAW       0.074200
     39 H3           4.4560    -1.2240     1.6070 hc         1 FAW       0.053200
     40 H4           5.2440    -2.6290     0.9250 hc         1 FAW       0.053200
     41 H5           5.7910    -1.3300    -1.1370 hc         1 FAW       0.038200
     42 H6           5.0120     0.0840    -0.4590 hc         1 FAW       0.038200
     43 H7           6.6170     0.0550     1.4560 hc         1 FAW       0.039700
     44 H8           7.3820    -1.3740     0.8010 hc         1 FAW       0.039700
     45 H9           8.0310    -0.0910    -1.2480 hc         1 FAW       0.037200
     46 H10          7.2720     1.3440    -0.5920 hc         1 FAW       0.037200
     47 H11          8.8280     1.2730     1.3670 hc         1 FAW       0.037700
     48 H12          9.5800    -0.1670     0.7210 hc         1 FAW       0.037700
     49 H13         10.2900     1.1140    -1.3100 hc         1 FAW       0.037200
     50 H14          9.5420     2.5580    -0.6620 hc         1 FAW       0.037200
     51 H15         11.0670     2.4550     1.3230 hc         1 FAW       0.036700
     52 H16         11.8110     1.0100     0.6760 hc         1 FAW       0.036700
     53 H17         12.5550     2.2960    -1.3410 hc         1 FAW       0.036700
     54 H18         11.8140     3.7420    -0.6910 hc         1 FAW       0.036700
     55 H19         13.3240     3.6180     1.3040 hc         1 FAW       0.036700
     56 H20         14.0620     2.1710     0.6560 hc         1 FAW       0.036700
     57 H21         14.8190     3.4610    -1.3550 hc         1 FAW       0.036700
     58 H22         14.0870     4.9090    -0.7000 hc         1 FAW       0.036700
     59 H23         15.5970     4.7690     1.2920 hc         1 FAW       0.036700
     60 H24         16.3270     3.3210     0.6370 hc         1 FAW       0.036700
     61 H25         16.3890     6.0810    -0.7000 hc         1 FAW       0.031367
     62 H26         17.7430     5.3100     0.1230 hc         1 FAW       0.031367
     63 H27         17.1120     4.6240    -1.3720 hc         1 FAW       0.031367
     64 H28          1.1130    -5.2790     0.9950 h1         1 FAW       0.056700
     65 H29          0.2530    -3.9600     1.7910 h1         1 FAW       0.056700
     66 H30         -1.1990    -5.3960     0.5450 h1         1 FAW       0.073700
     67 H31          0.2700    -6.1510    -1.2190 h1         1 FAW       0.029700
     68 H32         -1.3120    -5.6420    -1.7890 h1         1 FAW       0.029700
     69 H33          0.2280    -4.7180    -3.1350 ho         1 FAW       0.440000
     70 H34         -2.8790    -1.4780     0.3240 hc         1 FAW       0.074200
     71 H35         -3.1690    -1.8290    -1.3580 hc         1 FAW       0.074200
     72 H36         -5.3520    -2.9290    -0.7620 hc         1 FAW       0.053200
     73 H37         -5.0670    -2.5710     0.9270 hc         1 FAW       0.053200
     74 H38         -5.0400    -0.1150     0.3850 hc         1 FAW       0.038700
     75 H39         -5.3530    -0.4940    -1.2960 hc         1 FAW       0.038700
     76 H40         -7.4940    -1.6290    -0.6250 hc         1 FAW       0.039700
     77 H41         -7.1820    -1.2090     1.0440 hc         1 FAW       0.039700
     78 H42         -7.2330     1.2270     0.4320 hc         1 FAW       0.037700
     79 H43         -7.5600     0.7940    -1.2320 hc         1 FAW       0.037700
     80 H44         -9.6710    -0.3570    -0.5060 hc         1 FAW       0.037700
     81 H45         -9.3450     0.1060     1.1490 hc         1 FAW       0.037700
     82 H46         -9.4450     2.5240     0.4860 hc         1 FAW       0.037200
     83 H47         -9.7770     2.0530    -1.1660 hc         1 FAW       0.037200
     84 H48        -11.8690     0.8920    -0.4070 hc         1 FAW       0.037200
     85 H49        -11.5390     1.3850     1.2380 hc         1 FAW       0.037200
     86 H50        -11.6690     3.7900     0.5420 hc         1 FAW       0.036700
     87 H51        -11.9990     3.2940    -1.1030 hc         1 FAW       0.036700
     88 H52        -14.0800     2.1280    -0.3300 hc         1 FAW       0.036700
     89 H53        -13.7530     2.6390     1.3100 hc         1 FAW       0.036700
     90 H54        -13.8990     5.0360     0.5930 hc         1 FAW       0.036700
     91 H55        -14.2250     4.5230    -1.0480 hc         1 FAW       0.036700
     92 H56        -16.3000     3.3580    -0.2700 hc         1 FAW       0.036700
     93 H57        -15.9770     3.8790     1.3670 hc         1 FAW       0.036700
     94 H58        -16.1540     6.2860     0.6370 hc         1 FAW       0.031367
     95 H59        -16.4970     5.7530    -1.0060 hc         1 FAW       0.031367
     96 H60        -17.6350     5.3970     0.2900 hc         1 FAW       0.031367
@<TRIPOS>BOND
     1     1     2 2   
     2     2     3 1   
     3     2    16 1   
     4     3     4 1   
     5     3    37 1   
     6     3    38 1   
     7     4     5 1   
     8     4    39 1   
     9     4    40 1   
    10     5     6 1   
    11     5    41 1   
    12     5    42 1   
    13     6     7 1   
    14     6    43 1   
    15     6    44 1   
    16     7     8 1   
    17     7    45 1   
    18     7    46 1   
    19     8     9 1   
    20     8    47 1   
    21     8    48 1   
    22     9    10 1   
    23     9    49 1   
    24     9    50 1   
    25    10    11 1   
    26    10    51 1   
    27    10    52 1   
    28    11    12 1   
    29    11    53 1   
    30    11    54 1   
    31    12    13 1   
    32    12    55 1   
    33    12    56 1   
    34    13    14 1   
    35    13    57 1   
    36    13    58 1   
    37    14    15 1   
    38    14    59 1   
    39    14    60 1   
    40    15    61 1   
    41    15    62 1   
    42    15    63 1   
    43    16    17 1   
    44    17    18 1   
    45    17    64 1   
    46    17    65 1   
    47    18    19 1   
    48    18    21 1   
    49    18    66 1   
    50    19    20 1   
    51    19    67 1   
    52    19    68 1   
    53    20    69 1   
    54    21    22 1   
    55    22    23 2   
    56    22    24 1   
    57    24    25 1   
    58    24    70 1   
    59    24    71 1   
    60    25    26 1   
    61    25    72 1   
    62    25    73 1   
    63    26    27 1   
    64    26    74 1   
    65    26    75 1   
    66    27    28 1   
    67    27    76 1   
    68    27    77 1   
    69    28    29 1   
    70    28    78 1   
    71    28    79 1   
    72    29    30 1   
    73    29    80 1   
    74    29    81 1   
    75    30    31 1   
    76    30    82 1   
    77    30    83 1   
    78    31    32 1   
    79    31    84 1   
    80    31    85 1   
    81    32    33 1   
    82    32    86 1   
    83    32    87 1   
    84    33    34 1   
    85    33    88 1   
    86    33    89 1   
    87    34    35 1   
    88    34    90 1   
    89    34    91 1   
    90    35    36 1   
    91    35    92 1   
    92    35    93 1   
    93    36    94 1   
    94    36    95 1   
    95    36    96 1   
@<TRIPOS>SUBSTRUCTURE
     1 FAW         1 TEMP              0 ****  ****    0 ROOT
