@<TRIPOS>MOLECULE
FAW
   96    95     1     0     0
SMALL
No Charge or Current Charge


@<TRIPOS>ATOM
      1 OA1          1.5060    -2.7370     3.4310 o          1 FAW      -0.497000
      2 CA1          1.6010    -2.2340     2.3200 c          1 FAW       0.590100
      3 CA2          2.4070    -0.9660     2.0290 c3         1 FAW      -0.135400
      4 CA3          3.8980    -1.2930     1.7810 c3         1 FAW      -0.070400
      5 CA4          4.7480    -0.0410     1.4740 c3         1 FAW      -0.074400
      6 CA5          6.2370    -0.3670     1.2260 c3         1 FAW      -0.075400
      7 CA6          7.0880     0.8850     0.9190 c3         1 FAW      -0.073400
      8 CA7          8.5770     0.5580     0.6720 c3         1 FAW      -0.075400
      9 CA8          9.4270     1.8100     0.3650 c3         1 FAW      -0.073400
     10 CA9         10.9160     1.4840     0.1180 c3         1 FAW      -0.074400
     11 CAA         11.7670     2.7360    -0.1890 c3         1 FAW      -0.074400
     12 CBA         13.2560     2.4090    -0.4370 c3         1 FAW      -0.075400
     13 CCA         14.1060     3.6620    -0.7440 c3         1 FAW      -0.075400
     14 C33         15.5950     3.3350    -0.9910 c3         1 FAW      -0.075400
     15 C34         16.4440     4.5840    -1.2980 c3         1 FAW      -0.088100
     16 OG1          1.0140    -2.7330     1.1890 os         1 FAW      -0.415100
     17 CG1          0.2240    -3.9350     1.3080 c3         1 FAW       0.167600
     18 CG2         -0.3530    -4.3410    -0.0760 c3         1 FAW       0.173300
     19 CG3          0.7340    -4.6400    -1.1640 c3         1 FAW       0.147600
     20 OXT          1.2790    -3.4480    -1.7640 oh         1 FAW      -0.634000
     21 OG2         -1.2540    -3.2920    -0.5160 os         1 FAW      -0.427100
     22 CB1         -2.1230    -3.5450    -1.5450 c          1 FAW       0.593100
     23 OB1         -2.2600    -4.6310    -2.0930 o          1 FAW      -0.498000
     24 CB2         -2.9410    -2.3050    -1.9120 c3         1 FAW      -0.136400
     25 CB3         -4.2950    -2.2830    -1.1650 c3         1 FAW      -0.069400
     26 CB4         -5.1490    -1.0400    -1.4990 c3         1 FAW      -0.075400
     27 CB5         -6.5010    -1.0180    -0.7540 c3         1 FAW      -0.075400
     28 CB6         -7.3550     0.2250    -1.0880 c3         1 FAW      -0.073400
     29 CB7         -8.7070     0.2470    -0.3420 c3         1 FAW      -0.074400
     30 CB8         -9.5610     1.4900    -0.6760 c3         1 FAW      -0.073400
     31 CB9        -10.9140     1.5120     0.0690 c3         1 FAW      -0.074400
     32 CAB        -11.7670     2.7550    -0.2640 c3         1 FAW      -0.074400
     33 CBB        -13.1200     2.7770     0.4810 c3         1 FAW      -0.074400
     34 CCB        -13.9740     4.0200     0.1480 c3         1 FAW      -0.075400
     35 C35        -15.3260     4.0420     0.8930 c3         1 FAW      -0.075400
     36 C36        -16.1780     5.2820     0.5600 c3         1 FAW      -0.088100
     37 H1           2.0170    -0.4950     1.1190 hc         1 FAW       0.074200
     38 H2           2.3250    -0.2840     2.8830 hc         1 FAW       0.074200
     39 H3           4.3080    -1.8000     2.6640 hc         1 FAW       0.053200
     40 H4           3.9780    -1.9980     0.9430 hc         1 FAW       0.053200
     41 H5           4.3390     0.4650     0.5900 hc         1 FAW       0.038200
     42 H6           4.6690     0.6630     2.3110 hc         1 FAW       0.038200
     43 H7           6.6470    -0.8730     2.1100 hc         1 FAW       0.039700
     44 H8           6.3180    -1.0710     0.3880 hc         1 FAW       0.039700
     45 H9           6.6780     1.3910     0.0360 hc         1 FAW       0.037200
     46 H10          7.0080     1.5890     1.7570 hc         1 FAW       0.037200
     47 H11          8.9860     0.0520     1.5550 hc         1 FAW       0.037700
     48 H12          8.6570    -0.1450    -0.1660 hc         1 FAW       0.037700
     49 H13          9.0180     2.3160    -0.5180 hc         1 FAW       0.037200
     50 H14          9.3470     2.5140     1.2030 hc         1 FAW       0.037200
     51 H15         11.3260     0.9780     1.0010 hc         1 FAW       0.036700
     52 H16         10.9960     0.7800    -0.7200 hc         1 FAW       0.036700
     53 H17         11.3570     3.2420    -1.0730 hc         1 FAW       0.036700
     54 H18         11.6870     3.4400     0.6490 hc         1 FAW       0.036700
     55 H19         13.6650     1.9040     0.4470 hc         1 FAW       0.036700
     56 H20         13.3360     1.7060    -1.2750 hc         1 FAW       0.036700
     57 H21         13.6970     4.1670    -1.6270 hc         1 FAW       0.036700
     58 H22         14.0270     4.3650     0.0940 hc         1 FAW       0.036700
     59 H23         16.0090     2.8310    -0.1090 hc         1 FAW       0.036700
     60 H24         15.6790     2.6330    -1.8300 hc         1 FAW       0.036700
     61 H25         16.4090     5.2920    -0.4610 hc         1 FAW       0.031367
     62 H26         17.4910     4.3030    -1.4660 hc         1 FAW       0.031367
     63 H27         16.0760     5.0920    -2.1980 hc         1 FAW       0.031367
     64 H28          0.8370    -4.7610     1.6920 h1         1 FAW       0.056700
     65 H29         -0.6090    -3.7820     2.0080 h1         1 FAW       0.056700
     66 H30         -0.9160    -5.2690     0.0900 h1         1 FAW       0.073700
     67 H31          1.5370    -5.2310    -0.7030 h1         1 FAW       0.029700
     68 H32          0.2870    -5.2720    -1.9420 h1         1 FAW       0.029700
     69 H33          1.9590    -3.7360    -2.4120 ho         1 FAW       0.440000
     70 H34         -2.3840    -1.4090    -1.6130 hc         1 FAW       0.074200
     71 H35         -3.1250    -2.3040    -2.9920 hc         1 FAW       0.074200
     72 H36         -4.8610    -3.1890    -1.4190 hc         1 FAW       0.053200
     73 H37         -4.1110    -2.3150    -0.0830 hc         1 FAW       0.053200
     74 H38         -4.5830    -0.1350    -1.2450 hc         1 FAW       0.038700
     75 H39         -5.3330    -1.0090    -2.5810 hc         1 FAW       0.038700
     76 H40         -7.0680    -1.9230    -1.0090 hc         1 FAW       0.039700
     77 H41         -6.3170    -1.0490     0.3270 hc         1 FAW       0.039700
     78 H42         -6.7890     1.1290    -0.8330 hc         1 FAW       0.037700
     79 H43         -7.5390     0.2560    -2.1690 hc         1 FAW       0.037700
     80 H44         -9.2740    -0.6580    -0.5970 hc         1 FAW       0.037700
     81 H45         -8.5230     0.2160     0.7390 hc         1 FAW       0.037700
     82 H46         -8.9950     2.3940    -0.4210 hc         1 FAW       0.037200
     83 H47         -9.7450     1.5210    -1.7570 hc         1 FAW       0.037200
     84 H48        -11.4800     0.6070    -0.1860 hc         1 FAW       0.037200
     85 H49        -10.7300     1.4800     1.1510 hc         1 FAW       0.037200
     86 H50        -11.2010     3.6590    -0.0090 hc         1 FAW       0.036700
     87 H51        -11.9510     2.7860    -1.3450 hc         1 FAW       0.036700
     88 H52        -13.6860     1.8720     0.2260 hc         1 FAW       0.036700
     89 H53        -12.9360     2.7450     1.5620 hc         1 FAW       0.036700
     90 H54        -13.4070     4.9240     0.4030 hc         1 FAW       0.036700
     91 H55        -14.1570     4.0510    -0.9340 hc         1 FAW       0.036700
     92 H56        -15.8960     3.1400     0.6380 hc         1 FAW       0.036700
     93 H57        -15.1460     4.0130     1.9740 hc         1 FAW       0.036700
     94 H58        -15.6490     6.2020     0.8360 hc         1 FAW       0.031367
     95 H59        -16.4050     5.3210    -0.5120 hc         1 FAW       0.031367
     96 H60        -17.1260     5.2530     1.1110 hc         1 FAW       0.031367
@<TRIPOS>BOND
     1     1     2 2   
     2     2     3 1   
     3     2    16 1   
     4     3     4 1   
     5     3    37 1   
     6     3    38 1   
     7     4     5 1   
     8     4    39 1   
     9     4    40 1   
    10     5     6 1   
    11     5    41 1   
    12     5    42 1   
    13     6     7 1   
    14     6    43 1   
    15     6    44 1   
    16     7     8 1   
    17     7    45 1   
    18     7    46 1   
    19     8     9 1   
    20     8    47 1   
    21     8    48 1   
    22     9    10 1   
    23     9    49 1   
    24     9    50 1   
    25    10    11 1   
    26    10    51 1   
    27    10    52 1   
    28    11    12 1   
    29    11    53 1   
    30    11    54 1   
    31    12    13 1   
    32    12    55 1   
    33    12    56 1   
    34    13    14 1   
    35    13    57 1   
    36    13    58 1   
    37    14    15 1   
    38    14    59 1   
    39    14    60 1   
    40    15    61 1   
    41    15    62 1   
    42    15    63 1   
    43    16    17 1   
    44    17    18 1   
    45    17    64 1   
    46    17    65 1   
    47    18    19 1   
    48    18    21 1   
    49    18    66 1   
    50    19    20 1   
    51    19    67 1   
    52    19    68 1   
    53    20    69 1   
    54    21    22 1   
    55    22    23 2   
    56    22    24 1   
    57    24    25 1   
    58    24    70 1   
    59    24    71 1   
    60    25    26 1   
    61    25    72 1   
    62    25    73 1   
    63    26    27 1   
    64    26    74 1   
    65    26    75 1   
    66    27    28 1   
    67    27    76 1   
    68    27    77 1   
    69    28    29 1   
    70    28    78 1   
    71    28    79 1   
    72    29    30 1   
    73    29    80 1   
    74    29    81 1   
    75    30    31 1   
    76    30    82 1   
    77    30    83 1   
    78    31    32 1   
    79    31    84 1   
    80    31    85 1   
    81    32    33 1   
    82    32    86 1   
    83    32    87 1   
    84    33    34 1   
    85    33    88 1   
    86    33    89 1   
    87    34    35 1   
    88    34    90 1   
    89    34    91 1   
    90    35    36 1   
    91    35    92 1   
    92    35    93 1   
    93    36    94 1   
    94    36    95 1   
    95    36    96 1   
@<TRIPOS>SUBSTRUCTURE
     1 FAW         1 TEMP              0 ****  ****    0 ROOT
