@<TRIPOS>MOLECULE
FB0
  100   102     1     0     0
SMALL
abcg2


@<TRIPOS>ATOM
      1 P            1.2870     3.5090    -0.7230 p5         1 FB0       1.458800
      2 PA           4.0540     3.0920     0.0030 p5         1 FB0       1.458800
      3 N1          -5.5650    -2.5680    -2.0740 ns         1 FB0      -0.536900
      4 N1A          7.9350    -4.5550    -1.2280 nb         1 FB0      -0.327000
      5 O1A          4.1730     4.5800     0.0970 o          1 FB0      -0.854000
      6 C2          -5.2400    -3.1700    -0.9050 c          1 FB0       0.669100
      7 O2          -5.9310    -3.1190     0.0900 o          1 FB0      -0.574100
      8 C2A          8.0500    -4.4100     0.0900 ca         1 FB0       0.143900
      9 O2A          4.8230     2.3450    -1.0470 o          1 FB0      -0.854000
     10 N3          -4.0290    -3.8550    -0.9770 ns         1 FB0      -0.494500
     11 N3A          7.7370    -3.3640     0.8320 nb         1 FB0      -0.206000
     12 C4          -3.4200    -4.5720     0.0300 c          1 FB0       0.623100
     13 O4          -3.8930    -4.7240     1.1320 o          1 FB0      -0.528100
     14 C4AA         7.2420    -2.3690     0.0990 ca         1 FB0       0.105500
     15 C5AA         7.0530    -2.3740    -1.2750 ca         1 FB0      -0.080600
     16 C6         -12.0830    -0.1920     1.3990 c3         1 FB0      -0.078400
     17 C6A          7.4340    -3.5470    -1.9510 ca         1 FB0       0.428900
     18 N6A          7.3010    -3.6930    -3.2720 nv         1 FB0      -1.077900
     19 C7         -10.5530    -0.3150     1.4330 c3         1 FB0      -0.055700
     20 N7A          6.5100    -1.1880    -1.6960 nc         1 FB0      -0.571100
     21 C8          -9.9250     0.1720     0.1100 c3         1 FB0      -0.050700
     22 C8A          6.3780    -0.4830    -0.6100 cd         1 FB0       0.467700
     23 C9          -8.4610    -0.2460    -0.0390 c3         1 FB0      -0.087400
     24 N9A          6.8060    -1.1440     0.5120 na         1 FB0      -0.292300
     25 C1          -5.5350     0.4000    -2.2600 c3         1 FB0       0.136800
     26 C1'A         6.8420    -0.6450     1.8660 c5         1 FB0       0.323300
     27 C10         -6.7200    -1.7220    -2.1920 c3         1 FB0       0.370200
     28 N10         -6.5400    -0.4150    -1.5880 n3         1 FB0      -0.788600
     29 O1P          1.6990     3.9420    -2.0950 o          1 FB0      -0.850000
     30 C11         -4.1600     0.1980    -1.5890 c3         1 FB0       0.139300
     31 O6          -4.3540    -0.0210    -0.2120 oh         1 FB0      -0.730000
     32 C2'A         7.9750     0.3490     2.1260 c5         1 FB0       0.067300
     33 O2'A         9.1500    -0.3360     2.4370 oh         1 FB0      -0.707000
     34 O2P          0.7400     4.5010     0.2540 o          1 FB0      -0.850000
     35 C3          -3.2530     1.4120    -1.8110 c3         1 FB0       0.108300
     36 O3          -3.0990     1.6240    -3.1980 oh         1 FB0      -0.658000
     37 C3'A         7.3830     1.1760     3.2710 c5         1 FB0       0.098300
     38 O3'A         7.4640     0.4780     4.4870 oh         1 FB0      -0.714000
     39 O3P          2.4860     2.6270    -0.0190 os         1 FB0      -0.683800
     40 C12         -1.8960     1.2790    -1.0940 c3         1 FB0       0.153300
     41 O7          -2.0500     1.2720     0.3050 oh         1 FB0      -0.679000
     42 C4'A         5.9260     1.2610     2.8390 c5         1 FB0       0.156300
     43 O4'A         5.6570     0.0440     2.1350 os         1 FB0      -0.409000
     44 C4A         -2.0820    -5.1290    -0.3800 c3         1 FB0      -0.190100
     45 C5          -0.9760     2.4330    -1.4480 c3         1 FB0       0.230600
     46 O5           0.2750     2.2190    -0.8240 os         1 FB0      -0.566400
     47 C5'A         5.6740     2.4650     1.9510 c3         1 FB0       0.215600
     48 O5'A         4.3500     2.4150     1.4740 os         1 FB0      -0.555400
     49 C5A        -12.7160    -0.0710     2.7780 c3         1 FB0       0.145800
     50 C8M        -10.0540     1.6900    -0.0200 c3         1 FB0      -0.094100
     51 C9A         -7.8220     0.2380    -1.3370 c3         1 FB0       0.194800
     52 HN1         -4.9640    -2.6530    -2.8770 hn         1 FB0       0.311500
     53 HC2          8.4570    -5.2660     0.6180 h5         1 FB0       0.022100
     54 HN3         -3.5300    -3.8230    -1.8540 hn         1 FB0       0.309500
     55 HN5        -14.5060    -0.9260     2.3540 hn         1 FB0       0.386500
     56 HN5A       -14.5660     0.0910     3.6040 hn         1 FB0       0.386500
     57 H6         -12.3980     0.6750     0.8120 hc         1 FB0       0.043200
     58 H6A        -12.4930    -1.0700     0.8840 hc         1 FB0       0.043200
     59 HAN6         7.6660    -4.5120    -3.7270 hn         1 FB0       0.494500
     60 HANA         7.0170    -2.9210    -3.8490 hn         1 FB0       0.494500
     61 H8         -10.4870    -0.2950    -0.7120 hc         1 FB0       0.034700
     62 HC8          5.9490     0.5120    -0.5720 h5         1 FB0       0.160800
     63 H9          -7.8800     0.1440     0.8050 hc         1 FB0       0.061700
     64 H9A         -8.3790    -1.3330     0.0140 hc         1 FB0       0.061700
     65 H1          -5.4740     0.1880    -3.3330 h1         1 FB0       0.047200
     66 H1'A        -5.8210     1.4490    -2.1600 h1         1 FB0       0.047200
     67 HC1          6.9560    -1.5220     2.5130 h2         1 FB0       0.093700
     68 H10         -6.9390    -1.6390    -3.2630 h2         1 FB0       0.041200
     69 H10A        -7.5740    -2.2090    -1.7240 h2         1 FB0       0.041200
     70 H2          -3.6580    -0.6750    -2.0360 h1         1 FB0       0.013700
     71 HO2         -5.2700    -0.3620    -0.1470 ho         1 FB0       0.539000
     72 H11          8.1040     0.9940     1.2470 h1         1 FB0       0.072700
     73 HO2A         9.8980     0.2560     2.3070 ho         1 FB0       0.499000
     74 H3          -3.7590     2.3040    -1.4220 h1         1 FB0       0.086700
     75 HO3         -2.6580     0.8580    -3.5820 ho         1 FB0       0.434000
     76 HC3          7.8460     2.1700     3.3430 h1         1 FB0       0.051700
     77 HO3A         8.3510     0.1050     4.5530 ho         1 FB0       0.501000
     78 H4          -1.4230     0.3430    -1.4440 h1         1 FB0       0.021700
     79 HO4         -2.8090     0.7100     0.5130 ho         1 FB0       0.496000
     80 HC4          5.2600     1.3040     3.7060 h1         1 FB0       0.098700
     81 H4A         -1.3460    -4.3230    -0.4180 hc         1 FB0       0.067367
     82 H4AA        -1.7450    -5.8690     0.3400 hc         1 FB0       0.067367
     83 H4AB        -2.1170    -5.5850    -1.3700 hc         1 FB0       0.067367
     84 H5          -0.8580     2.4970    -2.5320 h1         1 FB0       0.021200
     85 H5'A        -1.4370     3.3690    -1.1070 h1         1 FB0       0.021200
     86 HC5          5.8420     3.3700     2.5460 h1         1 FB0       0.010700
     87 HC5A         6.3980     2.4830     1.1270 h1         1 FB0       0.010700
     88 H5A        -12.3790     0.8640     3.2350 h1         1 FB0       0.028700
     89 H5AA       -12.3480    -0.8770     3.4290 h1         1 FB0       0.028700
     90 H8M         -9.3890     2.1910     0.6890 hc         1 FB0       0.033700
     91 H8MA        -9.7940     2.0400    -1.0200 hc         1 FB0       0.033700
     92 H8MB       -11.0660     2.0410     0.1790 hc         1 FB0       0.033700
     93 H9AA        -8.5170     0.0900    -2.1780 h1         1 FB0       0.031200
     94 H9AB        -7.6470     1.3120    -1.2790 h1         1 FB0       0.031200
     95 C7M        -10.1670    -1.7500     1.7910 c3         1 FB0      -0.090100
     96 H7M         -9.1090    -1.8540     2.0300 hc         1 FB0       0.035367
     97 N5         -14.1680    -0.0280     2.6800 n8         1 FB0      -0.999200
     98 H7MA       -10.7260    -2.0980     2.6600 hc         1 FB0       0.035367
     99 H7MB       -10.3930    -2.4330     0.9680 hc         1 FB0       0.035367
    100 H7         -10.1740     0.3410     2.2310 hc         1 FB0       0.049700
@<TRIPOS>BOND
     1     1    29 1   
     2     1    34 1   
     3     1    39 1   
     4     1    46 1   
     5     2     5 1   
     6     2     9 1   
     7     2    39 1   
     8     2    48 1   
     9     3     6 1   
    10     3    27 1   
    11     3    52 1   
    12     4     8 ar  
    13     4    17 ar  
    14     6     7 2   
    15     6    10 1   
    16     8    11 ar  
    17     8    53 1   
    18    10    12 1   
    19    10    54 1   
    20    11    14 ar  
    21    12    13 2   
    22    12    44 1   
    23    14    15 ar  
    24    14    24 1   
    25    15    17 ar  
    26    15    20 1   
    27    16    19 1   
    28    16    49 1   
    29    16    57 1   
    30    16    58 1   
    31    17    18 1   
    32    18    59 1   
    33    18    60 1   
    34    19    21 1   
    35    19    95 1   
    36    19   100 1   
    37    20    22 2   
    38    21    23 1   
    39    21    50 1   
    40    21    61 1   
    41    22    24 1   
    42    22    62 1   
    43    23    51 1   
    44    23    63 1   
    45    23    64 1   
    46    24    26 1   
    47    25    28 1   
    48    25    30 1   
    49    25    65 1   
    50    25    66 1   
    51    26    32 1   
    52    26    43 1   
    53    26    67 1   
    54    27    28 1   
    55    27    68 1   
    56    27    69 1   
    57    28    51 1   
    58    30    31 1   
    59    30    35 1   
    60    30    70 1   
    61    31    71 1   
    62    32    33 1   
    63    32    37 1   
    64    32    72 1   
    65    33    73 1   
    66    35    36 1   
    67    35    40 1   
    68    35    74 1   
    69    36    75 1   
    70    37    38 1   
    71    37    42 1   
    72    37    76 1   
    73    38    77 1   
    74    40    41 1   
    75    40    45 1   
    76    40    78 1   
    77    41    79 1   
    78    42    43 1   
    79    42    47 1   
    80    42    80 1   
    81    44    81 1   
    82    44    82 1   
    83    44    83 1   
    84    45    46 1   
    85    45    84 1   
    86    45    85 1   
    87    47    48 1   
    88    47    86 1   
    89    47    87 1   
    90    49    88 1   
    91    49    89 1   
    92    49    97 1   
    93    50    90 1   
    94    50    91 1   
    95    50    92 1   
    96    51    93 1   
    97    51    94 1   
    98    55    97 1   
    99    56    97 1   
   100    95    96 1   
   101    95    98 1   
   102    95    99 1   
@<TRIPOS>SUBSTRUCTURE
     1 FB0         1 TEMP              0 ****  ****    0 ROOT
