@<TRIPOS>MOLECULE
FB0
  100   102     1     0     0
SMALL
No Charge or Current Charge


@<TRIPOS>ATOM
      1 P            2.4030     1.0000    -2.6680 p5         1 FB0       1.458800
      2 PA           3.3230     2.7940    -0.9960 p5         1 FB0       1.458800
      3 N1          -5.9050    -2.8890    -1.5850 ns         1 FB0      -0.536900
      4 N1A         10.7410    -0.4160     0.9060 nb         1 FB0      -0.327000
      5 O1A          2.6940     4.0670    -1.4580 o          1 FB0      -0.854000
      6 C2          -6.1470    -4.1460    -2.0480 c          1 FB0       0.669100
      7 O2          -7.2380    -4.5030    -2.4590 o          1 FB0      -0.574100
      8 C2A          9.9130    -0.9150     1.8540 ca         1 FB0       0.143900
      9 O2A          4.7120     2.6250    -1.5150 o          1 FB0      -0.854000
     10 N3          -5.0400    -4.9350    -1.9940 ns         1 FB0      -0.494500
     11 N3A          8.5620    -0.9880     1.7920 nb         1 FB0      -0.206000
     12 C4          -4.8740    -6.2440    -2.3610 c          1 FB0       0.623100
     13 O4          -5.7610    -6.9370    -2.8330 o          1 FB0      -0.528100
     14 C4AA         7.9930    -0.5080     0.6660 ca         1 FB0       0.105500
     15 C5AA         8.7440     0.0150    -0.3570 ca         1 FB0      -0.080600
     16 C6         -11.0730     1.4880     2.8850 c3         1 FB0      -0.078400
     17 C6A         10.1480     0.0470    -0.2040 ca         1 FB0       0.428900
     18 N6A         10.9830     0.5460    -1.1550 nv         1 FB0      -1.077900
     19 C7          -9.8930     0.5440     2.4720 c3         1 FB0      -0.055700
     20 N7A          7.9640     0.4450    -1.4230 nc         1 FB0      -0.571100
     21 C8          -9.1920     0.9920     1.1260 c3         1 FB0      -0.050700
     22 C8A          6.7150     0.1580    -0.9950 cd         1 FB0       0.467700
     23 C9          -8.0260     0.0330     0.7040 c3         1 FB0      -0.087400
     24 N9A          6.6760    -0.4280     0.2880 na         1 FB0      -0.292300
     25 C1          -5.3370     0.0080    -2.0690 c3         1 FB0       0.136800
     26 C1'A         5.4920    -0.9350     0.9790 c5         1 FB0       0.323300
     27 C10         -6.9020    -1.8540    -1.5340 c3         1 FB0       0.370200
     28 N10         -6.2740    -0.5950    -1.0550 n3         1 FB0      -0.788600
     29 O1P          3.5660     0.0960    -2.9170 o          1 FB0      -0.850000
     30 C11         -3.9150    -0.6020    -1.9870 c3         1 FB0       0.139300
     31 O6          -3.8020    -1.0100    -0.6200 oh         1 FB0      -0.730000
     32 C2'A         5.4050    -0.6480     2.5280 c5         1 FB0       0.067300
     33 O2'A         5.7930    -1.7600     3.3640 oh         1 FB0      -0.707000
     34 O2P          2.2380     2.0230    -3.7440 o          1 FB0      -0.850000
     35 C3          -2.7700     0.3800    -2.3990 c3         1 FB0       0.108300
     36 O3          -2.9710     0.8060    -3.7640 oh         1 FB0      -0.658000
     37 C3'A         3.8960    -0.3180     2.7120 c5         1 FB0       0.098300
     38 O3'A         3.1470    -1.5320     2.8420 oh         1 FB0      -0.714000
     39 O3P          2.3680     1.5590    -1.1940 os         1 FB0      -0.683800
     40 C12         -1.3390    -0.2330    -2.2330 c3         1 FB0       0.153300
     41 O7          -1.1860    -0.6990    -0.8770 oh         1 FB0      -0.679000
     42 C4'A         3.6180     0.4540     1.3850 c5         1 FB0       0.156300
     43 O4'A         4.3000    -0.3590     0.3950 os         1 FB0      -0.409000
     44 C4A         -3.4690    -6.7840    -2.1290 c3         1 FB0      -0.190100
     45 C5          -0.2070     0.7770    -2.6040 c3         1 FB0       0.230600
     46 O5           1.0650     0.1110    -2.5630 os         1 FB0      -0.566400
     47 C5'A         4.1720     1.9170     1.3910 c3         1 FB0       0.215600
     48 O5'A         3.3380     2.7970     0.6190 os         1 FB0      -0.555400
     49 C5A        -11.7830     1.1340     4.2140 c3         1 FB0       0.145800
     50 C8M         -8.7070     2.4720     1.1740 c3         1 FB0      -0.094100
     51 C9A         -7.2930     0.3970    -0.6130 c3         1 FB0       0.194800
     52 HN1         -4.9760    -2.6630    -1.2630 hn         1 FB0       0.311500
     53 HC2         10.3810    -1.2970     2.7600 h5         1 FB0       0.022100
     54 HN3         -4.2140    -4.4950    -1.6220 hn         1 FB0       0.309500
     55 HN5        -13.5020     2.2080     3.8900 hn         1 FB0       0.386500
     56 HN5A       -13.2520     1.8680     5.4480 hn         1 FB0       0.386500
     57 H6         -10.6950     2.5080     3.0030 hc         1 FB0       0.043200
     58 H6A        -11.8140     1.5130     2.0760 hc         1 FB0       0.043200
     59 HAN6        11.9250     0.8030    -0.8760 hn         1 FB0       0.494500
     60 HANA        10.5590     1.0920    -1.9020 hn         1 FB0       0.494500
     61 H8          -9.9490     0.9350     0.3340 hc         1 FB0       0.034700
     62 HC8          5.8040     0.3220    -1.5610 h5         1 FB0       0.160800
     63 H9          -7.2870    -0.0190     1.5120 hc         1 FB0       0.061700
     64 H9A         -8.4340    -0.9720     0.5860 hc         1 FB0       0.061700
     65 H1          -5.7300    -0.0960    -3.0900 h1         1 FB0       0.047200
     66 H1'A        -5.2320     1.0870    -1.8850 h1         1 FB0       0.047200
     67 HC1          5.4820    -2.0180     0.7990 h2         1 FB0       0.093700
     68 H10         -7.3340    -1.7170    -2.5330 h2         1 FB0       0.041200
     69 H10A        -7.6820    -2.2010    -0.8490 h2         1 FB0       0.041200
     70 H2          -3.8710    -1.4870    -2.6350 h1         1 FB0       0.013700
     71 HO2         -4.7620    -0.8950    -0.3400 ho         1 FB0       0.539000
     72 H11          6.0080     0.2380     2.7740 h1         1 FB0       0.072700
     73 HO2A         6.7770    -1.8360     3.3130 ho         1 FB0       0.499000
     74 H3          -2.8300     1.2550    -1.7360 h1         1 FB0       0.086700
     75 HO3         -2.9450     0.0080    -4.3360 ho         1 FB0       0.434000
     76 HC3          3.7340     0.3210     3.5920 h1         1 FB0       0.051700
     77 HO3A         3.8150    -2.1630     3.2090 ho         1 FB0       0.501000
     78 H4          -1.2640    -1.0900    -2.9160 h1         1 FB0       0.021700
     79 HO4         -2.1180    -0.9150    -0.5890 ho         1 FB0       0.496000
     80 HC4          2.5420     0.4810     1.1680 h1         1 FB0       0.098700
     81 H4A         -3.1990    -6.6380    -1.0760 hc         1 FB0       0.067367
     82 H4AA        -3.3650    -7.8320    -2.4310 hc         1 FB0       0.067367
     83 H4AB        -2.7480    -6.1410    -2.6470 hc         1 FB0       0.067367
     84 H5          -0.3870     1.1700    -3.6120 h1         1 FB0       0.021200
     85 H5'A        -0.2320     1.6230    -1.9030 h1         1 FB0       0.021200
     86 HC5          4.1920     2.2760     2.4280 h1         1 FB0       0.010700
     87 HC5A         5.2070     1.9330     1.0280 h1         1 FB0       0.010700
     88 H5A        -11.0380     1.0390     5.0170 h1         1 FB0       0.028700
     89 H5AA       -12.3210     0.1820     4.1190 h1         1 FB0       0.028700
     90 H8M         -7.9830     2.6200     1.9840 hc         1 FB0       0.033700
     91 H8MA        -8.2390     2.7770     0.2330 hc         1 FB0       0.033700
     92 H8MB        -9.5390     3.1680     1.3170 hc         1 FB0       0.033700
     93 H9AA        -8.0350     0.5500    -1.4090 h1         1 FB0       0.031200
     94 H9AB        -6.7910     1.3580    -0.4500 h1         1 FB0       0.031200
     95 C7M        -10.3630    -0.9410     2.4320 c3         1 FB0      -0.090100
     96 H7M         -9.5190    -1.6310     2.3310 hc         1 FB0       0.035367
     97 N5         -12.7590     2.1710     4.5980 n8         1 FB0      -0.999200
     98 H7MA       -10.8660    -1.2360     3.3590 hc         1 FB0       0.035367
     99 H7MB       -11.0550    -1.1100     1.5980 hc         1 FB0       0.035367
    100 H7          -9.1390     0.6140     3.2670 hc         1 FB0       0.049700
@<TRIPOS>BOND
     1     1    29 1   
     2     1    34 1   
     3     1    39 1   
     4     1    46 1   
     5     2     5 1   
     6     2     9 1   
     7     2    39 1   
     8     2    48 1   
     9     3     6 1   
    10     3    27 1   
    11     3    52 1   
    12     4     8 ar  
    13     4    17 ar  
    14     6     7 2   
    15     6    10 1   
    16     8    11 ar  
    17     8    53 1   
    18    10    12 1   
    19    10    54 1   
    20    11    14 ar  
    21    12    13 2   
    22    12    44 1   
    23    14    15 ar  
    24    14    24 1   
    25    15    17 ar  
    26    15    20 1   
    27    16    19 1   
    28    16    49 1   
    29    16    57 1   
    30    16    58 1   
    31    17    18 1   
    32    18    59 1   
    33    18    60 1   
    34    19    21 1   
    35    19    95 1   
    36    19   100 1   
    37    20    22 2   
    38    21    23 1   
    39    21    50 1   
    40    21    61 1   
    41    22    24 1   
    42    22    62 1   
    43    23    51 1   
    44    23    63 1   
    45    23    64 1   
    46    24    26 1   
    47    25    28 1   
    48    25    30 1   
    49    25    65 1   
    50    25    66 1   
    51    26    32 1   
    52    26    43 1   
    53    26    67 1   
    54    27    28 1   
    55    27    68 1   
    56    27    69 1   
    57    28    51 1   
    58    30    31 1   
    59    30    35 1   
    60    30    70 1   
    61    31    71 1   
    62    32    33 1   
    63    32    37 1   
    64    32    72 1   
    65    33    73 1   
    66    35    36 1   
    67    35    40 1   
    68    35    74 1   
    69    36    75 1   
    70    37    38 1   
    71    37    42 1   
    72    37    76 1   
    73    38    77 1   
    74    40    41 1   
    75    40    45 1   
    76    40    78 1   
    77    41    79 1   
    78    42    43 1   
    79    42    47 1   
    80    42    80 1   
    81    44    81 1   
    82    44    82 1   
    83    44    83 1   
    84    45    46 1   
    85    45    84 1   
    86    45    85 1   
    87    47    48 1   
    88    47    86 1   
    89    47    87 1   
    90    49    88 1   
    91    49    89 1   
    92    49    97 1   
    93    50    90 1   
    94    50    91 1   
    95    50    92 1   
    96    51    93 1   
    97    51    94 1   
    98    55    97 1   
    99    56    97 1   
   100    95    96 1   
   101    95    98 1   
   102    95    99 1   
@<TRIPOS>SUBSTRUCTURE
     1 FB0         1 TEMP              0 ****  ****    0 ROOT
