@<TRIPOS>MOLECULE
FB1
   17    17     1     0     0
SMALL
abcg2


@<TRIPOS>ATOM
      1 C4           3.0830    -0.5520     0.0180 ca         1 FB1      -0.048000
      2 CL1          0.2770     2.2520    -0.0740 cl         1 FB1      -0.161000
      3 C3           2.3620    -1.7350     0.0470 ca         1 FB1      -0.132000
      4 C2           0.9770    -1.6970     0.0320 ca         1 FB1      -0.013000
      5 C1           0.3110    -0.4780    -0.0090 ca         1 FB1      -0.262500
      6 C6           1.0420     0.7090    -0.0360 ca         1 FB1       0.216000
      7 C5           2.4270     0.6690    -0.0230 ca         1 FB1      -0.130000
      8 S           -1.4670    -0.4940    -0.0570 sy         1 FB1       1.146600
      9 N           -1.8460     0.2580     1.3530 n8         1 FB1      -1.021100
     10 O1          -1.9320     0.3620    -1.1340 o          1 FB1      -0.542000
     11 O2          -1.8750    -1.8910    -0.0570 o          1 FB1      -0.542000
     12 H5           2.9910     1.5910    -0.0440 ha         1 FB1       0.133000
     13 H2           0.4130    -2.6190     0.0560 ha         1 FB1       0.145000
     14 H4           4.1640    -0.5710     0.0280 ha         1 FB1       0.121000
     15 H3           2.8720    -2.6880     0.0820 ha         1 FB1       0.124000
     16 H1N         -1.8570    -0.3660     2.1520 hn         1 FB1       0.482000
     17 H2N         -2.7020     0.7970     1.2880 hn         1 FB1       0.482000
@<TRIPOS>BOND
     1     1     3 ar  
     2     1     7 ar  
     3     1    14 1   
     4     2     6 1   
     5     3     4 ar  
     6     3    15 1   
     7     4     5 ar  
     8     4    13 1   
     9     5     6 ar  
    10     5     8 1   
    11     6     7 ar  
    12     7    12 1   
    13     8     9 1   
    14     8    10 2   
    15     8    11 2   
    16     9    16 1   
    17     9    17 1   
@<TRIPOS>SUBSTRUCTURE
     1 FB1         1 TEMP              0 ****  ****    0 ROOT
