@<TRIPOS>MOLECULE
FB1
   17    17     1     0     0
SMALL
No Charge or Current Charge


@<TRIPOS>ATOM
      1 C4           3.1550    -0.5360    -0.0320 ca         1 FB1      -0.048000
      2 Cl1          0.2950     2.3110    -0.1040 cl         1 FB1      -0.161000
      3 C3           2.4330    -1.7360     0.0470 ca         1 FB1      -0.132000
      4 C2           1.0280    -1.7150     0.0700 ca         1 FB1      -0.013000
      5 C1           0.3300    -0.4870     0.0120 ca         1 FB1      -0.262500
      6 C6           1.0620     0.7220    -0.0610 ca         1 FB1       0.216000
      7 C5           2.4680     0.6870    -0.0830 ca         1 FB1      -0.130000
      8 S           -1.4670    -0.5100     0.0370 sy         1 FB1       1.146600
      9 N           -1.8400     0.1320     1.4890 n8         1 FB1      -1.021100
     10 O1          -2.0260     0.4520    -0.9090 o          1 FB1      -0.542000
     11 O2          -1.9680    -1.8800     0.1230 o          1 FB1      -0.542000
     12 H5           3.0270     1.6180    -0.1380 ha         1 FB1       0.133000
     13 H2           0.4900    -2.6600     0.1320 ha         1 FB1       0.145000
     14 H4           4.2430    -0.5520    -0.0490 ha         1 FB1       0.121000
     15 H3           2.9620    -2.6850     0.0900 ha         1 FB1       0.124000
     16 H1N         -2.5410    -0.5330     1.8060 hn         1 FB1       0.482000
     17 H2N         -2.4110     0.9190     1.1910 hn         1 FB1       0.482000
@<TRIPOS>BOND
     1     1     3 ar  
     2     1     7 ar  
     3     1    14 1   
     4     2     6 1   
     5     3     4 ar  
     6     3    15 1   
     7     4     5 ar  
     8     4    13 1   
     9     5     6 ar  
    10     5     8 1   
    11     6     7 ar  
    12     7    12 1   
    13     8     9 1   
    14     8    10 2   
    15     8    11 2   
    16     9    16 1   
    17     9    17 1   
@<TRIPOS>SUBSTRUCTURE
     1 FB1         1 TEMP              0 ****  ****    0 ROOT
