@<TRIPOS>MOLECULE
FB2
   17    17     1     0     0
SMALL
No Charge or Current Charge


@<TRIPOS>ATOM
      1 C01         -3.1960     0.0500    -0.0550 ca         1 FB2      -0.055000
      2 C02         -2.5220    -1.1840    -0.0800 ca         1 FB2      -0.131500
      3 C03         -1.1170    -1.2230    -0.0610 ca         1 FB2      -0.010000
      4 C04         -0.3780    -0.0220    -0.0150 ca         1 FB2      -0.270500
      5 C05         -1.0560     1.2160     0.0070 ca         1 FB2      -0.010000
      6 C06         -2.4620     1.2470    -0.0120 ca         1 FB2      -0.131500
      7 S07          1.4180    -0.0670     0.0110 sy         1 FB2       1.123600
      8 O09          1.9660     1.1850     0.5270 o          1 FB2      -0.544500
      9 O08          1.9020    -1.3720     0.4560 o          1 FB2      -0.544500
     10 NP0          1.8110    -0.0330    -1.5710 n8         1 FB2      -1.004100
     11 H01         -4.2830     0.0770    -0.0710 ha         1 FB2       0.117000
     12 H02         -3.0900    -2.1110    -0.1150 ha         1 FB2       0.120000
     13 H06         -2.9820     2.2020     0.0050 ha         1 FB2       0.120000
     14 H03         -0.6080    -2.1860    -0.0820 ha         1 FB2       0.137000
     15 H05         -0.5000     2.1520     0.0390 ha         1 FB2       0.137000
     16 HP01         2.4300    -0.8380    -1.6230 hn         1 FB2       0.473000
     17 HP02         2.4690     0.7430    -1.5790 hn         1 FB2       0.473000
@<TRIPOS>BOND
     1     1     2 ar  
     2     1     6 ar  
     3     1    11 1   
     4     2     3 ar  
     5     2    12 1   
     6     3     4 ar  
     7     3    14 1   
     8     4     5 ar  
     9     4     7 1   
    10     5     6 ar  
    11     5    15 1   
    12     6    13 1   
    13     7     8 2   
    14     7     9 2   
    15     7    10 1   
    16    10    16 1   
    17    10    17 1   
@<TRIPOS>SUBSTRUCTURE
     1 FB2         1 TEMP              0 ****  ****    0 ROOT
