@<TRIPOS>MOLECULE
FB2
   17    17     1     0     0
SMALL
abcg2


@<TRIPOS>ATOM
      1 C01         -3.1130     0.0170    -0.0970 ca         1 FB2      -0.055000
      2 C02         -2.4570    -1.2020    -0.0090 ca         1 FB2      -0.131500
      3 C03         -1.0700    -1.2450     0.0450 ca         1 FB2      -0.010000
      4 C04         -0.3610    -0.0540     0.0050 ca         1 FB2      -0.270500
      5 C05         -1.0050     1.1750    -0.0810 ca         1 FB2      -0.010000
      6 C06         -2.3890     1.2040    -0.1330 ca         1 FB2      -0.131500
      7 S07          1.4070    -0.0810     0.0910 sy         1 FB2       1.123600
      8 O09          1.8710     1.0400     0.8970 o          1 FB2      -0.544500
      9 O08          1.8170    -1.4240     0.4780 o          1 FB2      -0.544500
     10 NP0          1.8060     0.2920    -1.4670 n8         1 FB2      -1.004100
     11 H01         -4.1940     0.0450    -0.1340 ha         1 FB2       0.117000
     12 H02         -3.0220    -2.1240     0.0210 ha         1 FB2       0.120000
     13 H06         -2.9030     2.1530    -0.1990 ha         1 FB2       0.120000
     14 H03         -0.5580    -2.1950     0.1190 ha         1 FB2       0.137000
     15 H05         -0.4410     2.0980    -0.1090 ha         1 FB2       0.137000
     16 HP01         1.6470    -0.4760    -2.1100 hn         1 FB2       0.473000
     17 HP02         2.7670     0.6140    -1.5370 hn         1 FB2       0.473000
@<TRIPOS>BOND
     1     1     2 ar  
     2     1     6 ar  
     3     1    11 1   
     4     2     3 ar  
     5     2    12 1   
     6     3     4 ar  
     7     3    14 1   
     8     4     5 ar  
     9     4     7 1   
    10     5     6 ar  
    11     5    15 1   
    12     6    13 1   
    13     7     8 2   
    14     7     9 2   
    15     7    10 1   
    16    10    16 1   
    17    10    17 1   
@<TRIPOS>SUBSTRUCTURE
     1 FB2         1 TEMP              0 ****  ****    0 ROOT
