@<TRIPOS>MOLECULE
FB4
   26    27     1     0     0
SMALL
bcc


@<TRIPOS>ATOM
      1 C1          -1.1750    -0.8160     0.6620 ca         1 FB4      -0.020900
      2 C2          -1.5380    -1.1330    -0.6580 ca         1 FB4       0.191100
      3 C3          -2.7450    -0.7050    -1.1370 ca         1 FB4      -0.183000
      4 C4          -3.6080     0.0140    -0.3200 ca         1 FB4       0.070400
      5 C5          -3.2790     0.3140     0.9920 ca         1 FB4      -0.167000
      6 C6          -2.0450    -0.1030     1.4660 ca         1 FB4      -0.084000
      7 O7           0.0280    -1.2510     1.1700 os         1 FB4      -0.260200
      8 C8           1.1470    -0.5650     0.7430 ca         1 FB4       0.080100
      9 C9           2.0100    -1.1950    -0.1590 ca         1 FB4       0.081600
     10 C10          3.1720    -0.5420    -0.5520 ca         1 FB4      -0.153000
     11 C11          3.4440     0.7300    -0.0640 ca         1 FB4       0.045400
     12 C12          2.5890     1.3550     0.8310 ca         1 FB4      -0.123000
     13 C13          1.4380     0.6940     1.2350 ca         1 FB4      -0.111000
     14 CL14        -5.1300     0.5340    -0.9590 cl         1 FB4      -0.107400
     15 CL15         4.8840     1.5400    -0.5770 cl         1 FB4      -0.096400
     16 N16          1.6360    -2.4360    -0.6990 nv         1 FB4      -0.787200
     17 O17         -0.7530    -1.7960    -1.5080 oh         1 FB4      -0.561100
     18 H3          -2.9990    -0.9170    -2.1680 ha         1 FB4       0.162000
     19 H5          -3.9650     0.8690     1.6180 ha         1 FB4       0.150000
     20 H6          -1.7270     0.1100     2.4810 ha         1 FB4       0.141000
     21 H10          3.8490    -1.0200    -1.2470 ha         1 FB4       0.150000
     22 H12          2.8030     2.3410     1.2270 ha         1 FB4       0.155000
     23 H13          0.7750     1.1690     1.9480 ha         1 FB4       0.153000
     24 HN16         1.5070    -3.1570     0.0030 hn         1 FB4       0.392800
     25 HN1A         2.3000    -2.7790    -1.3820 hn         1 FB4       0.392800
     26 HO17         0.1340    -2.1160    -1.1480 ho         1 FB4       0.490000
@<TRIPOS>BOND
     1     1     2 ar  
     2     1     6 ar  
     3     1     7 1   
     4     2     3 ar  
     5     2    17 1   
     6     3     4 ar  
     7     3    18 1   
     8     4     5 ar  
     9     4    14 1   
    10     5     6 ar  
    11     5    19 1   
    12     6    20 1   
    13     7     8 1   
    14     8     9 ar  
    15     8    13 ar  
    16     9    10 ar  
    17     9    16 1   
    18    10    11 ar  
    19    10    21 1   
    20    11    12 ar  
    21    11    15 1   
    22    12    13 ar  
    23    12    22 1   
    24    13    23 1   
    25    16    24 1   
    26    16    25 1   
    27    17    26 1   
@<TRIPOS>SUBSTRUCTURE
     1 FB4         1 TEMP              0 ****  ****    0 ROOT
