@<TRIPOS>MOLECULE
FB4
   26    27     1     0     0
SMALL
No Charge or Current Charge


@<TRIPOS>ATOM
      1 C1          -1.1910    -0.7980     0.6650 ca         1 FB4      -0.020900
      2 C2          -1.4920    -0.9440    -0.7120 ca         1 FB4       0.191100
      3 C3          -2.7460    -0.5390    -1.1940 ca         1 FB4      -0.165000
      4 C4          -3.6990     0.0010    -0.3170 ca         1 FB4       0.162000
      5 C5          -3.4070     0.1350     1.0500 ca         1 FB4      -0.149000
      6 C6          -2.1530    -0.2680     1.5420 ca         1 FB4      -0.066000
      7 O7           0.0270    -1.1750     1.1800 os         1 FB4      -0.260200
      8 C8           1.1870    -0.5670     0.7590 ca         1 FB4       0.080100
      9 C9           2.0570    -1.2500    -0.1200 ca         1 FB4       0.220000
     10 C10          3.2160    -0.6090    -0.5830 ca         1 FB4      -0.135000
     11 C11          3.5130     0.6980    -0.1600 ca         1 FB4       0.137000
     12 C12          2.6500     1.3740     0.7200 ca         1 FB4      -0.105000
     13 C13          1.4810     0.7420     1.1780 ca         1 FB4      -0.093000
     14 Cl14        -5.2680     0.5040    -0.9300 cl         1 FB4      -0.199000
     15 Cl15         4.9700     1.4940    -0.7390 cl         1 FB4      -0.188000
     16 N16          1.7510    -2.5230    -0.5540 nv         1 FB4      -1.036000
     17 O17         -0.5990    -1.4870    -1.5940 oh         1 FB4      -0.600100
     18 H3          -2.9820    -0.6470    -2.2480 ha         1 FB4       0.144000
     19 H5          -4.1510     0.5500     1.7260 ha         1 FB4       0.132000
     20 H6          -1.9250    -0.1630     2.6010 ha         1 FB4       0.123000
     21 H10          3.8880    -1.1170    -1.2680 ha         1 FB4       0.132000
     22 H12          2.8850     2.3860     1.0400 ha         1 FB4       0.137000
     23 H13          0.8040     1.2640     1.8510 ha         1 FB4       0.135000
     24 HN16         1.2650    -3.1290     0.1110 hn         1 FB4       0.448000
     25 HN1A         2.4530    -3.0150    -1.1100 hn         1 FB4       0.448000
     26 HO17         0.2170    -1.7770    -1.0960 ho         1 FB4       0.529000
@<TRIPOS>BOND
     1     1     2 ar  
     2     1     6 ar  
     3     1     7 1   
     4     2     3 ar  
     5     2    17 1   
     6     3     4 ar  
     7     3    18 1   
     8     4     5 ar  
     9     4    14 1   
    10     5     6 ar  
    11     5    19 1   
    12     6    20 1   
    13     7     8 1   
    14     8     9 ar  
    15     8    13 ar  
    16     9    10 ar  
    17     9    16 1   
    18    10    11 ar  
    19    10    21 1   
    20    11    12 ar  
    21    11    15 1   
    22    12    13 ar  
    23    12    22 1   
    24    13    23 1   
    25    16    24 1   
    26    16    25 1   
    27    17    26 1   
@<TRIPOS>SUBSTRUCTURE
     1 FB4         1 TEMP              0 ****  ****    0 ROOT
