@<TRIPOS>MOLECULE
FB7
   51    54     1     0     0
SMALL
abcg2


@<TRIPOS>ATOM
      1 FAZ         -3.9360     0.5740    -2.3090 f          1 FB7      -0.109000
      2 CAY         -2.9020     0.5890    -1.4620 c3         1 FB7       0.355300
      3 FBA         -1.8620     0.0640    -2.1140 f          1 FB7      -0.109000
      4 FBB         -2.6190     1.8770    -1.2270 f          1 FB7      -0.109000
      5 CAX         -3.2010    -0.1530    -0.1880 ca         1 FB7      -0.096300
      6 CAW         -4.5130    -0.4170     0.1310 ca         1 FB7      -0.198000
      7 CAV         -4.7970    -1.1240     1.3150 ca         1 FB7       0.609900
      8 NBC         -6.0760    -1.3580     1.6930 nv         1 FB7      -1.064900
      9 NAU         -3.8270    -1.5610     2.1130 nb         1 FB7      -0.731000
     10 CAT         -2.5730    -1.2950     1.7840 ca         1 FB7       0.398900
     11 CAH         -2.1720    -0.5850     0.6610 cp         1 FB7      -0.115000
     12 CAE         -0.7260    -0.3460     0.4480 cp         1 FB7       0.067000
     13 CAF         -0.2060     0.9350     0.5560 ca         1 FB7      -0.262000
     14 CAD          0.1080    -1.4280     0.2090 ca         1 FB7      -0.262000
     15 CAC          1.4820    -1.1770     0.0660 ca         1 FB7       0.663400
     16 NAI          2.3870    -2.1730    -0.2090 nh         1 FB7      -0.769300
     17 CAO          3.8040    -1.9180    -0.0040 c6         1 FB7       0.177800
     18 CAP          4.6360    -2.8790    -0.8280 c6         1 FB7       0.143100
     19 OAQ          4.3070    -4.2230    -0.5590 os         1 FB7      -0.444500
     20 CAR          2.9510    -4.4560    -0.8520 c6         1 FB7       0.143100
     21 CAS          2.0270    -3.5680    -0.0370 c6         1 FB7       0.177800
     22 NAB          1.9740     0.0530     0.1660 nb         1 FB7      -0.822000
     23 CAA          1.1790     1.0940     0.3920 ca         1 FB7       0.663400
     24 NAG          1.7880     2.3250     0.4370 nh         1 FB7      -0.769300
     25 CAJ          1.0730     3.4870     0.9280 c6         1 FB7       0.177800
     26 CAK          1.7190     4.7610     0.4130 c6         1 FB7       0.143100
     27 OAL          3.0910     4.8210     0.7190 os         1 FB7      -0.444500
     28 CAM          3.7630     3.7220     0.1450 c6         1 FB7       0.143100
     29 CAN          3.2240     2.4010     0.6560 c6         1 FB7       0.177800
     30 H1          -5.3290    -0.1060    -0.5070 ha         1 FB7       0.138000
     31 H2          -6.8140    -1.2590     1.0170 hn         1 FB7       0.485000
     32 H3          -6.2340    -2.0450     2.4110 hn         1 FB7       0.485000
     33 H4          -1.8140    -1.6660     2.4660 h4         1 FB7       0.028100
     34 H5          -0.8590     1.7590     0.7950 ha         1 FB7       0.127500
     35 H6          -0.3150    -2.4180     0.1350 ha         1 FB7       0.127500
     36 H7           4.0380    -0.9000    -0.3050 h1         1 FB7       0.055325
     37 H8           4.0640    -2.0130     1.0590 h1         1 FB7       0.055325
     38 H9           4.4990    -2.6590    -1.8970 h1         1 FB7       0.053575
     39 H10          5.6920    -2.7430    -0.5900 h1         1 FB7       0.053575
     40 H11          2.7560    -4.2920    -1.9210 h1         1 FB7       0.053575
     41 H12          2.7370    -5.5020    -0.6290 h1         1 FB7       0.053575
     42 H13          2.0630    -3.8550     1.0230 h1         1 FB7       0.055325
     43 H14          1.0150    -3.7520    -0.3920 h1         1 FB7       0.055325
     44 H15          0.0440     3.4830     0.5730 h1         1 FB7       0.055325
     45 H16          1.0430     3.4960     2.0260 h1         1 FB7       0.055325
     46 H17          1.5650     4.8300    -0.6730 h1         1 FB7       0.053575
     47 H18          1.2370     5.6230     0.8760 h1         1 FB7       0.053575
     48 H19          3.6770     3.7520    -0.9510 h1         1 FB7       0.053575
     49 H20          4.8190     3.8100     0.4020 h1         1 FB7       0.053575
     50 H21          3.4570     2.2900     1.7240 h1         1 FB7       0.055325
     51 H22          3.7200     1.5900     0.1300 h1         1 FB7       0.055325
@<TRIPOS>BOND
     1     1     2 1   
     2     2     3 1   
     3     2     4 1   
     4     2     5 1   
     5     5     6 ar  
     6     5    11 ar  
     7     6     7 ar  
     8     6    30 1   
     9     7     8 1   
    10     7     9 ar  
    11     8    31 1   
    12     8    32 1   
    13     9    10 ar  
    14    10    11 ar  
    15    10    33 1   
    16    11    12 1   
    17    12    13 ar  
    18    12    14 ar  
    19    13    23 ar  
    20    13    34 1   
    21    14    15 ar  
    22    14    35 1   
    23    15    16 1   
    24    15    22 ar  
    25    16    17 1   
    26    16    21 1   
    27    17    18 1   
    28    17    36 1   
    29    17    37 1   
    30    18    19 1   
    31    18    38 1   
    32    18    39 1   
    33    19    20 1   
    34    20    21 1   
    35    20    40 1   
    36    20    41 1   
    37    21    42 1   
    38    21    43 1   
    39    22    23 ar  
    40    23    24 1   
    41    24    25 1   
    42    24    29 1   
    43    25    26 1   
    44    25    44 1   
    45    25    45 1   
    46    26    27 1   
    47    26    46 1   
    48    26    47 1   
    49    27    28 1   
    50    28    29 1   
    51    28    48 1   
    52    28    49 1   
    53    29    50 1   
    54    29    51 1   
@<TRIPOS>SUBSTRUCTURE
     1 FB7         1 TEMP              0 ****  ****    0 ROOT
