@<TRIPOS>MOLECULE
FB7
   51    54     1     0     0
SMALL
No Charge or Current Charge


@<TRIPOS>ATOM
      1 FAZ         -4.0760     0.8520    -2.0540 f          1 FB7      -0.109000
      2 CAY         -3.0100     0.8140    -1.2220 c3         1 FB7       0.355300
      3 FBA         -1.9720     0.3680    -1.9650 f          1 FB7      -0.109000
      4 FBB         -2.7400     2.0950    -0.8850 f          1 FB7      -0.109000
      5 CAX         -3.2660    -0.0600     0.0230 ca         1 FB7      -0.096300
      6 CAW         -4.5920    -0.3540     0.4160 ca         1 FB7      -0.198000
      7 CAV         -4.8130    -1.1740     1.5260 ca         1 FB7       0.609900
      8 NBC         -6.0260    -1.5170     1.9650 nv         1 FB7      -1.064900
      9 NAU         -3.8680    -1.7250     2.2670 nb         1 FB7      -0.731000
     10 CAT         -2.5920    -1.4490     1.9150 ca         1 FB7       0.398900
     11 CAH         -2.2230    -0.6220     0.8220 cp         1 FB7      -0.115000
     12 CAE         -0.7750    -0.3840     0.5600 cp         1 FB7       0.067000
     13 CAF         -0.2100     0.9010     0.5970 ca         1 FB7      -0.262000
     14 CAD          0.1050    -1.4450     0.2930 ca         1 FB7      -0.262000
     15 CAC          1.4650    -1.1840     0.0600 ca         1 FB7       0.663400
     16 NAI          2.3980    -2.2020    -0.2280 nh         1 FB7      -0.769300
     17 CAO          3.7950    -2.1490     0.3330 c6         1 FB7       0.177800
     18 CAP          4.7980    -3.0350    -0.4640 c6         1 FB7       0.143100
     19 OAQ          4.2850    -4.3750    -0.6300 os         1 FB7      -0.444500
     20 CAR          3.0340    -4.3970    -1.3540 c6         1 FB7       0.143100
     21 CAS          1.9420    -3.5820    -0.6020 c6         1 FB7       0.177800
     22 NAB          1.9810     0.0490     0.0860 nb         1 FB7      -0.822000
     23 CAA          1.1600     1.0710     0.3490 ca         1 FB7       0.663400
     24 NAG          1.7800     2.3370     0.3530 nh         1 FB7      -0.769300
     25 CAJ          0.9650     3.5950     0.2990 c6         1 FB7       0.177800
     26 CAK          1.7840     4.8240    -0.1970 c6         1 FB7       0.143100
     27 OAL          3.0140     4.9590     0.5500 os         1 FB7      -0.444500
     28 CAM          3.8670     3.8000     0.4170 c6         1 FB7       0.143100
     29 CAN          3.1530     2.5190     0.9420 c6         1 FB7       0.177800
     30 H1          -5.4440     0.0430    -0.1270 ha         1 FB7       0.138000
     31 H2          -6.7920    -1.4690     1.3020 hn         1 FB7       0.485000
     32 H3          -6.0420    -2.2920     2.6170 hn         1 FB7       0.485000
     33 H4          -1.8200    -1.8990     2.5390 h4         1 FB7       0.028100
     34 H5          -0.8370     1.7500     0.8390 ha         1 FB7       0.127500
     35 H6          -0.2760    -2.4580     0.2720 ha         1 FB7       0.127500
     36 H7           4.1920    -1.1240     0.3300 h1         1 FB7       0.055325
     37 H8           3.7850    -2.4860     1.3800 h1         1 FB7       0.055325
     38 H9           4.9790    -2.5920    -1.4540 h1         1 FB7       0.053575
     39 H10          5.7580    -3.0790     0.0680 h1         1 FB7       0.053575
     40 H11          3.1910    -3.9740    -2.3570 h1         1 FB7       0.053575
     41 H12          2.7050    -5.4390    -1.4740 h1         1 FB7       0.053575
     42 H13          1.6470    -4.1360     0.3020 h1         1 FB7       0.055325
     43 H14          1.0590    -3.5280    -1.2560 h1         1 FB7       0.055325
     44 H15          0.1110     3.4680    -0.3820 h1         1 FB7       0.055325
     45 H16          0.5590     3.8210     1.2960 h1         1 FB7       0.055325
     46 H17          2.0210     4.7060    -1.2640 h1         1 FB7       0.053575
     47 H18          1.1880     5.7400    -0.0810 h1         1 FB7       0.053575
     48 H19          4.1350     3.6690    -0.6420 h1         1 FB7       0.053575
     49 H20          4.7940     3.9680     0.9830 h1         1 FB7       0.053575
     50 H21          3.0800     2.5830     2.0380 h1         1 FB7       0.055325
     51 H22          3.8070     1.6650     0.7150 h1         1 FB7       0.055325
@<TRIPOS>BOND
     1     1     2 1   
     2     2     3 1   
     3     2     4 1   
     4     2     5 1   
     5     5     6 ar  
     6     5    11 ar  
     7     6     7 ar  
     8     6    30 1   
     9     7     8 1   
    10     7     9 ar  
    11     8    31 1   
    12     8    32 1   
    13     9    10 ar  
    14    10    11 ar  
    15    10    33 1   
    16    11    12 1   
    17    12    13 ar  
    18    12    14 ar  
    19    13    23 ar  
    20    13    34 1   
    21    14    15 ar  
    22    14    35 1   
    23    15    16 1   
    24    15    22 ar  
    25    16    17 1   
    26    16    21 1   
    27    17    18 1   
    28    17    36 1   
    29    17    37 1   
    30    18    19 1   
    31    18    38 1   
    32    18    39 1   
    33    19    20 1   
    34    20    21 1   
    35    20    40 1   
    36    20    41 1   
    37    21    42 1   
    38    21    43 1   
    39    22    23 ar  
    40    23    24 1   
    41    24    25 1   
    42    24    29 1   
    43    25    26 1   
    44    25    44 1   
    45    25    45 1   
    46    26    27 1   
    47    26    46 1   
    48    26    47 1   
    49    27    28 1   
    50    28    29 1   
    51    28    48 1   
    52    28    49 1   
    53    29    50 1   
    54    29    51 1   
@<TRIPOS>SUBSTRUCTURE
     1 FB7         1 TEMP              0 ****  ****    0 ROOT
