@<TRIPOS>MOLECULE
FB8
   47    49     1     0     0
SMALL
abcg2


@<TRIPOS>ATOM
      1 C4          -3.8710    -0.4250     0.4460 cc         1 FB8      -0.308500
      2 C14          4.1980    -1.4550    -0.6800 ca         1 FB8       0.018000
      3 C5          -2.6030     0.2860     0.5200 ca         1 FB8       0.268500
      4 C6          -2.4540     1.5820     1.0240 ca         1 FB8      -0.271000
      5 C11          4.0910     0.7590     0.2600 ca         1 FB8       0.018000
      6 C7          -1.1670     2.0740     1.0800 ca         1 FB8       0.148900
      7 C8          -0.3440     0.1510     0.2600 ca         1 FB8       0.387900
      8 C9           2.0540    -0.4640    -0.1430 ca         1 FB8       0.380000
      9 C10          2.7100     0.6890     0.3050 ca         1 FB8      -0.183000
     10 C12          4.8350    -0.3030    -0.2310 ca         1 FB8      -0.315500
     11 C13          6.9410     0.4750    -1.8990 c3         1 FB8      -0.338100
     12 N1          -5.3940    -2.0480     0.6590 nd         1 FB8      -0.687000
     13 N2          -0.1020     1.3790     0.6990 nb         1 FB8      -0.227000
     14 C3          -4.0750    -1.7550     0.7070 cd         1 FB8       0.305900
     15 N3           0.6880    -0.6530    -0.1370 nu         1 FB8      -0.926900
     16 C2          -6.0070    -0.9240     0.3490 cc         1 FB8       0.430800
     17 S1           6.5950    -0.1990    -0.2900 sy         1 FB8       1.069500
     18 O1           7.0390     0.7680     0.7130 o          1 FB8      -0.528000
     19 O2           7.1370    -1.5570    -0.2440 o          1 FB8      -0.528000
     20 C15          2.8240    -1.5300    -0.6370 ca         1 FB8      -0.183000
     21 N4          -1.5410    -0.4190     0.1440 nb         1 FB8      -0.241000
     22 N5          -5.1280     0.1000     0.2120 na         1 FB8      -0.148500
     23 C16         -5.4090     1.4640    -0.2560 c3         1 FB8       0.083300
     24 C17         -6.1740     1.4850    -1.5730 c3         1 FB8      -0.107100
     25 C18         -6.0790     2.3020     0.8240 c3         1 FB8      -0.107100
     26 H2           4.7620    -2.2960    -1.0600 ha         1 FB8       0.136000
     27 H3          -3.2800     2.1680     1.3950 ha         1 FB8       0.138000
     28 H4           4.5770     1.6570     0.6190 ha         1 FB8       0.136000
     29 H5          -0.9790     3.0720     1.4580 h4         1 FB8       0.026100
     30 H6           2.1490     1.5230     0.6910 ha         1 FB8       0.137000
     31 H7           6.5300    -0.1810    -2.6630 h1         1 FB8       0.101033
     32 H8           6.5030     1.4680    -1.9800 h1         1 FB8       0.101033
     33 H9           8.0250     0.5350    -2.0030 h1         1 FB8       0.101033
     34 H12         -3.3280    -2.4900     0.9630 h4         1 FB8       0.048100
     35 H14          0.3740    -1.5500    -0.4780 hn         1 FB8       0.516000
     36 H15         -7.9140     0.0540     0.6100 hc         1 FB8       0.056367
     37 H16         -7.7600    -0.8520    -0.8920 hc         1 FB8       0.056367
     38 H17         -7.9360    -1.7060     0.6340 hc         1 FB8       0.056367
     39 H19          2.3320    -2.4290    -0.9870 ha         1 FB8       0.137000
     40 H21         -4.4340     1.8970    -0.4680 h1         1 FB8       0.067700
     41 H22         -6.1480     2.4990    -1.9720 hc         1 FB8       0.049533
     42 H23         -5.7130     0.8250    -2.3090 hc         1 FB8       0.049533
     43 H24         -7.2210     1.2080    -1.4630 hc         1 FB8       0.049533
     44 H25         -7.0790     1.9400     1.0620 hc         1 FB8       0.049533
     45 H26         -5.4950     2.3110     1.7450 hc         1 FB8       0.049533
     46 H27         -6.1750     3.3310     0.4770 hc         1 FB8       0.049533
     47 C1          -7.4810    -0.8380     0.1630 c3         1 FB8      -0.123400
@<TRIPOS>BOND
     1     1     3 1   
     2     1    14 2   
     3     1    22 1   
     4     2    10 ar  
     5     2    20 ar  
     6     2    26 1   
     7     3     4 ar  
     8     3    21 ar  
     9     4     6 ar  
    10     4    27 1   
    11     5     9 ar  
    12     5    10 ar  
    13     5    28 1   
    14     6    13 ar  
    15     6    29 1   
    16     7    13 ar  
    17     7    15 1   
    18     7    21 ar  
    19     8     9 ar  
    20     8    15 1   
    21     8    20 ar  
    22     9    30 1   
    23    10    17 1   
    24    11    17 1   
    25    11    31 1   
    26    11    32 1   
    27    11    33 1   
    28    12    14 1   
    29    12    16 2   
    30    14    34 1   
    31    15    35 1   
    32    16    22 1   
    33    16    47 1   
    34    17    18 2   
    35    17    19 2   
    36    20    39 1   
    37    22    23 1   
    38    23    24 1   
    39    23    25 1   
    40    23    40 1   
    41    24    41 1   
    42    24    42 1   
    43    24    43 1   
    44    25    44 1   
    45    25    45 1   
    46    25    46 1   
    47    36    47 1   
    48    37    47 1   
    49    38    47 1   
@<TRIPOS>SUBSTRUCTURE
     1 FB8         1 TEMP              0 ****  ****    0 ROOT
