@<TRIPOS>MOLECULE
FB8
   47    49     1     0     0
SMALL
No Charge or Current Charge


@<TRIPOS>ATOM
      1 C4          -3.9310    -0.2850     0.7830 cc         1 FB8      -0.308500
      2 C14          4.1650    -1.3690    -1.1320 ca         1 FB8       0.018000
      3 C5          -2.6070     0.3310     0.6930 ca         1 FB8       0.268500
      4 C6          -2.4120     1.6980     0.9580 ca         1 FB8      -0.271000
      5 C11          4.1970     0.3460     0.5990 ca         1 FB8       0.018000
      6 C7          -1.1090     2.2090     0.8570 ca         1 FB8       0.148900
      7 C8          -0.3490     0.1190     0.3180 ca         1 FB8       0.387900
      8 C9           2.0730    -0.6160    -0.1250 ca         1 FB8       0.380000
      9 C10          2.7970     0.2670     0.6940 ca         1 FB8      -0.183000
     10 C12          4.8850    -0.4730    -0.3180 ca         1 FB8      -0.315500
     11 C13          6.9180     0.8920    -1.7020 c3         1 FB8      -0.338100
     12 N1          -5.4190    -1.9320     1.1240 nd         1 FB8      -0.687000
     13 N2          -0.0710     1.4190     0.5280 nb         1 FB8      -0.227000
     14 C3          -4.0910    -1.5750     1.2110 cd         1 FB8       0.305900
     15 N3           0.6830    -0.7340    -0.0500 nu         1 FB8      -0.926900
     16 C2          -6.0520    -0.8880     0.6050 cc         1 FB8       0.430800
     17 S1           6.6790    -0.3700    -0.4530 sy         1 FB8       1.069500
     18 O1           7.2190     0.1730     0.8000 o          1 FB8      -0.528000
     19 O2           7.1850    -1.6260    -1.0220 o          1 FB8      -0.528000
     20 C15          2.7660    -1.4390    -1.0260 ca         1 FB8      -0.183000
     21 N4          -1.5600    -0.4600     0.3780 nb         1 FB8      -0.241000
     22 N5          -5.1640     0.1490     0.3210 na         1 FB8      -0.148500
     23 C16         -5.4390     1.4290    -0.3840 c3         1 FB8       0.083300
     24 C17         -6.1390     1.2520    -1.7500 c3         1 FB8      -0.107100
     25 C18         -6.1550     2.4620     0.5140 c3         1 FB8      -0.107100
     26 H2           4.6800    -2.0100    -1.8460 ha         1 FB8       0.136000
     27 H3          -3.2330     2.3430     1.2490 ha         1 FB8       0.138000
     28 H4           4.7380     1.0400     1.2410 ha         1 FB8       0.136000
     29 H5          -0.8920     3.2590     1.0470 h4         1 FB8       0.026100
     30 H6           2.2870     0.8850     1.4240 ha         1 FB8       0.137000
     31 H7           6.4360     0.5540    -2.6250 h1         1 FB8       0.101033
     32 H8           6.4590     1.8190    -1.3430 h1         1 FB8       0.101033
     33 H9           7.9940     1.0240    -1.8530 h1         1 FB8       0.101033
     34 H12         -3.3390    -2.2580     1.5900 h4         1 FB8       0.048100
     35 H14          0.3360    -1.6210    -0.4130 hn         1 FB8       0.516000
     36 H15         -7.9970     0.0600     0.5710 hc         1 FB8       0.056367
     37 H16         -7.7310    -1.1370    -0.7170 hc         1 FB8       0.056367
     38 H17         -8.0310    -1.6630     0.9440 hc         1 FB8       0.056367
     39 H19          2.2190    -2.1320    -1.6580 ha         1 FB8       0.137000
     40 H21         -4.4610     1.8600    -0.6300 h1         1 FB8       0.067700
     41 H22         -6.0970     2.1880    -2.3200 hc         1 FB8       0.049533
     42 H23         -5.6400     0.4750    -2.3430 hc         1 FB8       0.049533
     43 H24         -7.1940     0.9840    -1.6360 hc         1 FB8       0.049533
     44 H25         -7.1820     2.1590     0.7380 hc         1 FB8       0.049533
     45 H26         -5.6220     2.5860     1.4640 hc         1 FB8       0.049533
     46 H27         -6.1920     3.4390     0.0170 hc         1 FB8       0.049533
     47 C1          -7.5320    -0.9010     0.3340 c3         1 FB8      -0.123400
@<TRIPOS>BOND
     1     1     3 1   
     2     1    14 2   
     3     1    22 1   
     4     2    10 ar  
     5     2    20 ar  
     6     2    26 1   
     7     3     4 ar  
     8     3    21 ar  
     9     4     6 ar  
    10     4    27 1   
    11     5     9 ar  
    12     5    10 ar  
    13     5    28 1   
    14     6    13 ar  
    15     6    29 1   
    16     7    13 ar  
    17     7    15 1   
    18     7    21 ar  
    19     8     9 ar  
    20     8    15 1   
    21     8    20 ar  
    22     9    30 1   
    23    10    17 1   
    24    11    17 1   
    25    11    31 1   
    26    11    32 1   
    27    11    33 1   
    28    12    14 1   
    29    12    16 2   
    30    14    34 1   
    31    15    35 1   
    32    16    22 1   
    33    16    47 1   
    34    17    18 2   
    35    17    19 2   
    36    20    39 1   
    37    22    23 1   
    38    23    24 1   
    39    23    25 1   
    40    23    40 1   
    41    24    41 1   
    42    24    42 1   
    43    24    43 1   
    44    25    44 1   
    45    25    45 1   
    46    25    46 1   
    47    36    47 1   
    48    37    47 1   
    49    38    47 1   
@<TRIPOS>SUBSTRUCTURE
     1 FB8         1 TEMP              0 ****  ****    0 ROOT
