@<TRIPOS>MOLECULE
FB9
   79    84     1     0     0
SMALL
abcg2


@<TRIPOS>ATOM
      1 O3          20.9090     1.3060    24.0120 o          1 FB9      -0.635100
      2 C10         22.0280     1.0170    24.4210 c          1 FB9       0.664100
      3 N2          22.4840    -0.2780    24.4340 ns         1 FB9      -0.168000
      4 C11         21.7440    -1.3530    23.9220 ca         1 FB9      -0.049000
      5 C19         22.3750    -2.2780    23.0980 ca         1 FB9      -0.101500
      6 C18         21.7050    -3.3920    22.6080 ca         1 FB9      -0.147500
      7 C14         20.3660    -3.5860    22.9250 ca         1 FB9       0.117100
      8 O4          19.6170    -4.6320    22.4960 os         1 FB9      -0.317100
      9 C15         20.2140    -5.5520    21.6340 cx         1 FB9       0.103300
     10 C17         20.3360    -5.2180    20.1850 cx         1 FB9      -0.138900
     11 C16         19.3110    -6.2130    20.6580 cx         1 FB9      -0.138900
     12 C13         19.7270    -2.6660    23.7550 ca         1 FB9      -0.147500
     13 C12         20.4060    -1.5700    24.2550 ca         1 FB9      -0.101500
     14 N           22.8860     1.9440    24.9260 n          1 FB9      -0.407800
     15 C5          22.4980     3.3380    24.9360 c3         1 FB9       0.125000
     16 C6          24.1840     1.6380    25.5020 c3         1 FB9       0.091000
     17 C7          25.3340     1.2540    24.5580 c3         1 FB9       0.115300
     18 O1          25.3560    -0.1520    24.3110 oh         1 FB9      -0.688000
     19 C8          25.3550     1.9150    23.1800 c3         1 FB9       0.188300
     20 O2          24.2220     1.5910    22.4000 oh         1 FB9      -0.653000
     21 C9          25.5530     3.4220    23.1880 c3         1 FB9       0.167800
     22 N1          24.7110     4.2280    24.0460 nq         1 FB9      -0.705600
     23 C2          24.7020     5.6570    23.7160 cy         1 FB9       0.124500
     24 C1          25.7200     6.5480    24.3960 c3         1 FB9       0.167600
     25 O           27.0370     6.3310    23.9410 os         1 FB9      -0.452000
     26 C           27.3280     6.9180    22.6970 c3         1 FB9       0.139900
     27 C4          23.2460     4.1860    23.9260 cy         1 FB9       0.147500
     28 C3          23.2040     5.7320    24.0910 cy         1 FB9      -0.033400
     29 C20         22.8520     6.3010    25.4340 ca         1 FB9      -0.064300
     30 C25         21.8490     7.2660    25.5170 ca         1 FB9      -0.106500
     31 C24         21.4900     7.8400    26.7260 ca         1 FB9      -0.090500
     32 C23         22.1360     7.4600    27.9040 ca         1 FB9       0.034000
     33 C22         23.1410     6.4890    27.8340 ca         1 FB9      -0.090500
     34 C21         23.4870     5.9230    26.6210 ca         1 FB9      -0.106500
     35 C26         21.7870     8.0470    29.1510 cg         1 FB9      -0.108000
     36 C27         21.5040     8.5530    30.2110 ch         1 FB9      -0.100000
     37 C28         21.1750     9.1500    31.4600 ca         1 FB9       0.027000
     38 C33         21.9300     8.8630    32.6020 ca         1 FB9      -0.087000
     39 C32         21.6090     9.4500    33.8150 ca         1 FB9      -0.113000
     40 C31         20.5340    10.3270    33.9060 ca         1 FB9      -0.101000
     41 C30         19.7790    10.6150    32.7750 ca         1 FB9      -0.113000
     42 C29         20.0930    10.0320    31.5580 ca         1 FB9      -0.087000
     43 H18         23.4890    -0.4260    24.4560 hn         1 FB9       0.165000
     44 H27         23.4150    -2.1340    22.8260 ha         1 FB9       0.122000
     45 H26         22.2400    -4.0840    21.9720 ha         1 FB9       0.122000
     46 H21         21.0030    -6.1470    22.0890 h1         1 FB9       0.078700
     47 H25         21.2080    -5.5770    19.6520 hc         1 FB9       0.080950
     48 H24         19.9760    -4.2500    19.8600 hc         1 FB9       0.080950
     49 H23         18.2740    -5.9040    20.6430 hc         1 FB9       0.080950
     50 H22         19.4710    -7.2630    20.4540 hc         1 FB9       0.080950
     51 H20         18.6880    -2.8190    24.0190 ha         1 FB9       0.122000
     52 H19         19.8880    -0.8890    24.9150 ha         1 FB9       0.122000
     53 H11         22.6600     3.7180    25.9450 h1         1 FB9       0.068200
     54 H10         21.4310     3.4210    24.7380 h1         1 FB9       0.068200
     55 H12         24.0830     0.8470    26.2550 h1         1 FB9       0.057700
     56 H13         24.4940     2.5270    26.0480 h1         1 FB9       0.057700
     57 H3          26.2630     1.5430    25.0650 h1         1 FB9       0.049700
     58 H14         25.6710    -0.5990    25.1040 ho         1 FB9       0.454000
     59 H4          26.2580     1.5290    22.6860 h1         1 FB9       0.035700
     60 H15         24.2790     0.6640    22.1520 ho         1 FB9       0.455000
     61 H16         26.5880     3.6120    23.4790 h1         1 FB9       0.048700
     62 H17         25.4670     3.7450    22.1370 h1         1 FB9       0.048700
     63 H           24.7730     5.8010    22.6260 h1         1 FB9       0.037700
     64 H8          25.4220     7.5970    24.2520 h1         1 FB9       0.057700
     65 H9          25.7370     6.3620    25.4700 h1         1 FB9       0.057700
     66 H6          28.3960     6.7990    22.5170 h1         1 FB9       0.028367
     67 H5          26.7920     6.4520    21.8640 h1         1 FB9       0.028367
     68 H7          27.0960     7.9900    22.6890 h1         1 FB9       0.028367
     69 H2          22.9190     3.9230    22.9120 h1         1 FB9       0.070700
     70 H1          22.5990     6.2280    23.3340 hc         1 FB9       0.068700
     71 H31         21.3370     7.5790    24.6150 ha         1 FB9       0.121000
     72 H30         20.7090     8.5880    26.7580 ha         1 FB9       0.120500
     73 H29         23.6510     6.1790    28.7360 ha         1 FB9       0.120500
     74 H28         24.2640     5.1690    26.6050 ha         1 FB9       0.121000
     75 H36         22.7670     8.1810    32.5320 ha         1 FB9       0.119000
     76 H35         22.2000     9.2230    34.6920 ha         1 FB9       0.115000
     77 H34         20.2880    10.7860    34.8540 ha         1 FB9       0.114000
     78 H33         18.9410    11.2960    32.8410 ha         1 FB9       0.115000
     79 H32         19.5050    10.2570    30.6780 ha         1 FB9       0.119000
@<TRIPOS>BOND
     1     1     2 2   
     2     2     3 1   
     3     2    14 1   
     4     3     4 1   
     5     3    43 1   
     6     4     5 ar  
     7     4    13 ar  
     8     5     6 ar  
     9     5    44 1   
    10     6     7 ar  
    11     6    45 1   
    12     7     8 1   
    13     7    12 ar  
    14     8     9 1   
    15     9    10 1   
    16     9    11 1   
    17     9    46 1   
    18    10    11 1   
    19    10    47 1   
    20    10    48 1   
    21    11    49 1   
    22    11    50 1   
    23    12    13 ar  
    24    12    51 1   
    25    13    52 1   
    26    14    15 1   
    27    14    16 1   
    28    15    27 1   
    29    15    53 1   
    30    15    54 1   
    31    16    17 1   
    32    16    55 1   
    33    16    56 1   
    34    17    18 1   
    35    17    19 1   
    36    17    57 1   
    37    18    58 1   
    38    19    20 1   
    39    19    21 1   
    40    19    59 1   
    41    20    60 1   
    42    21    22 1   
    43    21    61 1   
    44    21    62 1   
    45    22    23 1   
    46    22    27 1   
    47    23    24 1   
    48    23    28 1   
    49    23    63 1   
    50    24    25 1   
    51    24    64 1   
    52    24    65 1   
    53    25    26 1   
    54    26    66 1   
    55    26    67 1   
    56    26    68 1   
    57    27    28 1   
    58    27    69 1   
    59    28    29 1   
    60    28    70 1   
    61    29    30 ar  
    62    29    34 ar  
    63    30    31 ar  
    64    30    71 1   
    65    31    32 ar  
    66    31    72 1   
    67    32    33 ar  
    68    32    35 1   
    69    33    34 ar  
    70    33    73 1   
    71    34    74 1   
    72    35    36 3   
    73    36    37 1   
    74    37    38 ar  
    75    37    42 ar  
    76    38    39 ar  
    77    38    75 1   
    78    39    40 ar  
    79    39    76 1   
    80    40    41 ar  
    81    40    77 1   
    82    41    42 ar  
    83    41    78 1   
    84    42    79 1   
@<TRIPOS>SUBSTRUCTURE
     1 FB9         1 TEMP              0 ****  ****    0 ROOT
