@<TRIPOS>MOLECULE
FB9
   79    84     1     0     0
SMALL
No Charge or Current Charge


@<TRIPOS>ATOM
      1 O3          20.8490     1.4230    23.7000 o          1 FB9      -0.635100
      2 C10         21.8910     1.0410    24.2200 c          1 FB9       0.664100
      3 N2          22.2800    -0.2920    24.2510 ns         1 FB9      -0.168000
      4 C11         21.6530    -1.4890    23.8070 ca         1 FB9      -0.049000
      5 C19         22.4220    -2.6690    23.8240 ca         1 FB9      -0.101500
      6 C18         21.8680    -3.8910    23.4040 ca         1 FB9      -0.147500
      7 C14         20.5370    -3.9420    22.9600 ca         1 FB9       0.117100
      8 O4          19.9800    -5.1340    22.5590 os         1 FB9      -0.317100
      9 C15         20.4520    -5.4370    21.2620 cx         1 FB9       0.103300
     10 C17         19.6730    -4.8850    20.0920 cx         1 FB9      -0.138900
     11 C16         19.5920    -6.3550    20.4290 cx         1 FB9      -0.138900
     12 C13         19.7550    -2.7770    22.9580 ca         1 FB9      -0.147500
     13 C12         20.3070    -1.5530    23.3770 ca         1 FB9      -0.101500
     14 N           22.7880     1.9570    24.8220 n          1 FB9      -0.407800
     15 C5          22.3810     3.3720    25.0020 c3         1 FB9       0.125000
     16 C6          23.9620     1.5120    25.6270 c3         1 FB9       0.091000
     17 C7          25.2480     1.1200    24.8460 c3         1 FB9       0.115300
     18 O1          25.1880    -0.2810    24.5010 oh         1 FB9      -0.688000
     19 C8          25.5810     1.9390    23.5610 c3         1 FB9       0.188300
     20 O2          24.6470     1.6360    22.5080 oh         1 FB9      -0.653000
     21 C9          25.8090     3.4740    23.7320 c3         1 FB9       0.167800
     22 N1          24.7210     4.3560    24.2290 nq         1 FB9      -0.705600
     23 C2          24.6240     5.7180    23.6060 cy         1 FB9       0.124500
     24 C1          25.6290     6.8110    24.0640 c3         1 FB9       0.167600
     25 O           26.9550     6.5400    23.5470 os         1 FB9      -0.452000
     26 C           27.1490     6.8110    22.1460 c3         1 FB9       0.139900
     27 C4          23.2440     4.1640    23.9820 cy         1 FB9       0.147500
     28 C3          23.1420     5.7370    24.1020 cy         1 FB9      -0.033400
     29 C20         22.8350     6.3650    25.4800 ca         1 FB9      -0.064300
     30 C25         21.7700     7.2830    25.5850 ca         1 FB9      -0.106500
     31 C24         21.4520     7.8780    26.8180 ca         1 FB9      -0.090500
     32 C23         22.1970     7.5640    27.9680 ca         1 FB9       0.034000
     33 C22         23.2610     6.6500    27.8760 ca         1 FB9      -0.090500
     34 C21         23.5780     6.0550    26.6430 ca         1 FB9      -0.106500
     35 C26         21.8740     8.1700    29.2260 cg         1 FB9      -0.108000
     36 C27         21.5980     8.6750    30.3030 ch         1 FB9      -0.100000
     37 C28         21.2740     9.2480    31.5660 ca         1 FB9       0.027000
     38 C33         22.0450     8.9370    32.7030 ca         1 FB9      -0.087000
     39 C32         21.7250     9.5030    33.9500 ca         1 FB9      -0.113000
     40 C31         20.6340    10.3810    34.0640 ca         1 FB9      -0.101000
     41 C30         19.8620    10.6940    32.9320 ca         1 FB9      -0.113000
     42 C29         20.1820    10.1280    31.6840 ca         1 FB9      -0.087000
     43 H18         23.1960    -0.4380    24.6570 hn         1 FB9       0.165000
     44 H27         23.4550    -2.6390    24.1630 ha         1 FB9       0.122000
     45 H26         22.4700    -4.7960    23.4250 ha         1 FB9       0.122000
     46 H21         21.5350    -5.5340    21.1710 h1         1 FB9       0.078700
     47 H25         20.2340    -4.5940    19.2070 hc         1 FB9       0.080950
     48 H24         18.8050    -4.2650    20.3060 hc         1 FB9       0.080950
     49 H23         18.6710    -6.7260    20.8720 hc         1 FB9       0.080950
     50 H22         20.0970    -7.0570    19.7700 hc         1 FB9       0.080950
     51 H20         18.7190    -2.8220    22.6310 ha         1 FB9       0.122000
     52 H19         19.6730    -0.6730    23.3700 ha         1 FB9       0.122000
     53 H11         22.5860     3.7050    26.0250 h1         1 FB9       0.068200
     54 H10         21.3180     3.5340    24.7840 h1         1 FB9       0.068200
     55 H12         23.6630     0.6810    26.2800 h1         1 FB9       0.057700
     56 H13         24.2440     2.3310    26.3020 h1         1 FB9       0.057700
     57 H3          26.0830     1.2680    25.5440 h1         1 FB9       0.049700
     58 H14         26.1080    -0.6290    24.5120 ho         1 FB9       0.454000
     59 H4          26.5600     1.5600    23.2370 h1         1 FB9       0.035700
     60 H15         24.4280     0.6890    22.6480 ho         1 FB9       0.455000
     61 H16         26.6820     3.6270    24.3800 h1         1 FB9       0.048700
     62 H17         26.1040     3.8410    22.7400 h1         1 FB9       0.048700
     63 H           24.6400     5.6800    22.5100 h1         1 FB9       0.037700
     64 H8          25.2640     7.7910    23.7280 h1         1 FB9       0.057700
     65 H9          25.6540     6.8200    25.1600 h1         1 FB9       0.057700
     66 H6          28.1980     6.6460    21.8700 h1         1 FB9       0.028367
     67 H5          26.5310     6.1530    21.5230 h1         1 FB9       0.028367
     68 H7          26.8960     7.8540    21.9110 h1         1 FB9       0.028367
     69 H2          23.0120     3.8210    22.9650 h1         1 FB9       0.070700
     70 H1          22.4740     6.1500    23.3400 hc         1 FB9       0.068700
     71 H31         21.1800     7.5390    24.7070 ha         1 FB9       0.121000
     72 H30         20.6270     8.5840    26.8790 ha         1 FB9       0.120500
     73 H29         23.8430     6.3990    28.7600 ha         1 FB9       0.120500
     74 H28         24.4030     5.3490    26.6010 ha         1 FB9       0.121000
     75 H36         22.8910     8.2570    32.6210 ha         1 FB9       0.119000
     76 H35         22.3220     9.2600    34.8260 ha         1 FB9       0.115000
     77 H34         20.3860    10.8190    35.0290 ha         1 FB9       0.114000
     78 H33         19.0180    11.3740    33.0200 ha         1 FB9       0.115000
     79 H32         19.5810    10.3750    30.8110 ha         1 FB9       0.119000
@<TRIPOS>BOND
     1     1     2 2   
     2     2     3 1   
     3     2    14 1   
     4     3     4 1   
     5     3    43 1   
     6     4     5 ar  
     7     4    13 ar  
     8     5     6 ar  
     9     5    44 1   
    10     6     7 ar  
    11     6    45 1   
    12     7     8 1   
    13     7    12 ar  
    14     8     9 1   
    15     9    10 1   
    16     9    11 1   
    17     9    46 1   
    18    10    11 1   
    19    10    47 1   
    20    10    48 1   
    21    11    49 1   
    22    11    50 1   
    23    12    13 ar  
    24    12    51 1   
    25    13    52 1   
    26    14    15 1   
    27    14    16 1   
    28    15    27 1   
    29    15    53 1   
    30    15    54 1   
    31    16    17 1   
    32    16    55 1   
    33    16    56 1   
    34    17    18 1   
    35    17    19 1   
    36    17    57 1   
    37    18    58 1   
    38    19    20 1   
    39    19    21 1   
    40    19    59 1   
    41    20    60 1   
    42    21    22 1   
    43    21    61 1   
    44    21    62 1   
    45    22    23 1   
    46    22    27 1   
    47    23    24 1   
    48    23    28 1   
    49    23    63 1   
    50    24    25 1   
    51    24    64 1   
    52    24    65 1   
    53    25    26 1   
    54    26    66 1   
    55    26    67 1   
    56    26    68 1   
    57    27    28 1   
    58    27    69 1   
    59    28    29 1   
    60    28    70 1   
    61    29    30 ar  
    62    29    34 ar  
    63    30    31 ar  
    64    30    71 1   
    65    31    32 ar  
    66    31    72 1   
    67    32    33 ar  
    68    32    35 1   
    69    33    34 ar  
    70    33    73 1   
    71    34    74 1   
    72    35    36 3   
    73    36    37 1   
    74    37    38 ar  
    75    37    42 ar  
    76    38    39 ar  
    77    38    75 1   
    78    39    40 ar  
    79    39    76 1   
    80    40    41 ar  
    81    40    77 1   
    82    41    42 ar  
    83    41    78 1   
    84    42    79 1   
@<TRIPOS>SUBSTRUCTURE
     1 FB9         1 TEMP              0 ****  ****    0 ROOT
