@<TRIPOS>MOLECULE
FBA
   18    18     1     0     0
SMALL
bcc


@<TRIPOS>ATOM
      1 C1          -0.9720    -0.0070    -0.3500 ca         1 FBA      -0.219300
      2 C2          -0.2830    -1.2100    -0.2270 ca         1 FBA      -0.068000
      3 C3           1.0850    -1.2270    -0.0080 ca         1 FBA      -0.160500
      4 C4           1.7520    -0.0200     0.0860 ca         1 FBA       0.201900
      5 C5           1.1010     1.1930    -0.0340 ca         1 FBA      -0.160500
      6 C6          -0.2680     1.1900    -0.2540 ca         1 FBA      -0.068000
      7 C           -2.4540    -0.0020    -0.5560 c3         1 FBA       0.201100
      8 N           -3.1700     0.0150     0.7540 nz         1 FBA      -0.840600
      9 F            3.0750    -0.0260     0.2940 f          1 FBA      -0.103900
     10 H2          -0.8170    -2.1490    -0.3100 ha         1 FBA       0.142000
     11 H3           1.6230    -2.1620     0.0850 ha         1 FBA       0.179500
     12 H5           1.6510     2.1220     0.0370 ha         1 FBA       0.179500
     13 H6          -0.7880     2.1350    -0.3590 ha         1 FBA       0.142000
     14 H1          -2.7970    -0.8900    -1.0820 hx         1 FBA       0.106700
     15 H2A         -2.7900     0.8770    -1.1010 hx         1 FBA       0.106700
     16 HN1         -4.1810     0.0450     0.6260 hn         1 FBA       0.454133
     17 HN2         -2.9150     0.8260     1.3170 hn         1 FBA       0.454133
     18 HN3         -2.9640    -0.8140     1.3110 hn         1 FBA       0.454133
@<TRIPOS>BOND
     1     1     2 ar  
     2     1     6 ar  
     3     1     7 1   
     4     2     3 ar  
     5     2    10 1   
     6     3     4 ar  
     7     3    11 1   
     8     4     5 ar  
     9     4     9 1   
    10     5     6 ar  
    11     5    12 1   
    12     6    13 1   
    13     7     8 1   
    14     7    14 1   
    15     7    15 1   
    16     8    16 1   
    17     8    17 1   
    18     8    18 1   
@<TRIPOS>SUBSTRUCTURE
     1 FBA         1 TEMP              0 ****  ****    0 ROOT
