@<TRIPOS>MOLECULE
FBA
   18    18     1     0     0
SMALL
No Charge or Current Charge


@<TRIPOS>ATOM
      1 C1          -1.0000    -0.0080    -0.3540 ca         1 FBA      -0.219300
      2 C2          -0.3110    -1.2300    -0.2290 ca         1 FBA      -0.050000
      3 C3           1.0760    -1.2350    -0.0000 ca         1 FBA      -0.142500
      4 C4           1.7730    -0.0220     0.1010 ca         1 FBA       0.237000
      5 C5           1.0920     1.1990    -0.0240 ca         1 FBA      -0.142500
      6 C6          -0.2950     1.2080    -0.2530 ca         1 FBA      -0.050000
      7 C           -2.4920    -0.0010    -0.5980 c3         1 FBA       0.172900
      8 N           -3.1350     0.0170     0.7510 nz         1 FBA      -0.978000
      9 F            3.1060    -0.0280     0.3210 f          1 FBA      -0.139000
     10 H2          -0.8470    -2.1750    -0.3080 ha         1 FBA       0.124000
     11 H3           1.6130    -2.1750     0.0970 ha         1 FBA       0.161500
     12 H5           1.6410     2.1330     0.0550 ha         1 FBA       0.161500
     13 H6          -0.8190     2.1570    -0.3510 ha         1 FBA       0.124000
     14 H1          -2.8090    -0.8940    -1.1490 hx         1 FBA       0.106700
     15 H2A         -2.7970     0.8860    -1.1660 hx         1 FBA       0.106700
     16 HN1         -4.1660     0.0230     0.7080 hn         1 FBA       0.509333
     17 HN2         -2.8660     0.8420     1.3060 hn         1 FBA       0.509333
     18 HN3         -2.8770    -0.8000     1.3220 hn         1 FBA       0.509333
@<TRIPOS>BOND
     1     1     2 ar  
     2     1     6 ar  
     3     1     7 1   
     4     2     3 ar  
     5     2    10 1   
     6     3     4 ar  
     7     3    11 1   
     8     4     5 ar  
     9     4     9 1   
    10     5     6 ar  
    11     5    12 1   
    12     6    13 1   
    13     7     8 1   
    14     7    14 1   
    15     7    15 1   
    16     8    16 1   
    17     8    17 1   
    18     8    18 1   
@<TRIPOS>SUBSTRUCTURE
     1 FBA         1 TEMP              0 ****  ****    0 ROOT
