@<TRIPOS>MOLECULE
FBB
   16    17     1     0     0
SMALL
No Charge or Current Charge


@<TRIPOS>ATOM
      1 F10         -3.6360     0.6290     0.1160 f          1 FBB      -0.179000
      2 C5          -2.3780     0.1390     0.0680 ca         1 FBB       0.161000
      3 C6          -2.1710    -1.2550     0.0360 ca         1 FBB      -0.140000
      4 C1          -0.8590    -1.7720    -0.0150 ca         1 FBB      -0.052000
      5 C4          -1.2840     1.0220     0.0500 ca         1 FBB      -0.105000
      6 C3           0.0110     0.4800    -0.0010 ca         1 FBB      -0.170000
      7 S9           1.5090     1.3960    -0.0300 ss         1 FBB      -0.031200
      8 C8           2.2950    -0.1960    -0.0870 cc         1 FBB       0.640100
      9 N11          3.6290    -0.3510    -0.1240 nv         1 FBB      -1.013200
     10 N7           1.5610    -1.2980    -0.0820 nd         1 FBB      -0.625100
     11 C2           0.2330    -0.8870    -0.0330 ca         1 FBB       0.127400
     12 H1          -3.0230    -1.9290     0.0500 ha         1 FBB       0.134000
     13 H2          -0.6910    -2.8460    -0.0400 ha         1 FBB       0.135000
     14 H3          -1.4420     2.0970     0.0750 ha         1 FBB       0.140000
     15 H4           4.1940     0.4290     0.1950 hn         1 FBB       0.488500
     16 H5           3.9700    -1.2780     0.1000 hn         1 FBB       0.488500
@<TRIPOS>BOND
     1     1     2 1   
     2     2     3 ar  
     3     2     5 ar  
     4     3     4 ar  
     5     3    12 1   
     6     4    11 ar  
     7     4    13 1   
     8     5     6 ar  
     9     5    14 1   
    10     6     7 1   
    11     6    11 ar  
    12     7     8 1   
    13     8     9 1   
    14     8    10 2   
    15     9    15 1   
    16     9    16 1   
    17    10    11 1   
@<TRIPOS>SUBSTRUCTURE
     1 FBB         1 TEMP              0 ****  ****    0 ROOT
