@<TRIPOS>MOLECULE
FBB
   16    17     1     0     0
SMALL
abcg2


@<TRIPOS>ATOM
      1 F10         -3.5990     0.6250     0.0920 f          1 FBB      -0.179000
      2 C5          -2.3470     0.1360     0.0570 ca         1 FBB       0.161000
      3 C6          -2.1720    -1.2400     0.0280 ca         1 FBB      -0.140000
      4 C1          -0.8910    -1.7660    -0.0100 ca         1 FBB      -0.052000
      5 C4          -1.2910     1.0250     0.0520 ca         1 FBB      -0.105000
      6 C3          -0.0190     0.4770     0.0130 ca         1 FBB      -0.170000
      7 S9           1.5080     1.3040    -0.0040 ss         1 FBB      -0.031200
      8 C8           2.3080    -0.2700    -0.0450 cc         1 FBB       0.640100
      9 N11          3.6480    -0.3230    -0.1170 nv         1 FBB      -1.013200
     10 N7           1.5250    -1.2970    -0.0490 nd         1 FBB      -0.625100
     11 C2           0.2070    -0.9100    -0.0170 ca         1 FBB       0.127400
     12 H1          -3.0330    -1.8960     0.0320 ha         1 FBB       0.134000
     13 H2          -0.7420    -2.8380    -0.0330 ha         1 FBB       0.135000
     14 H3          -1.4590     2.0940     0.0760 ha         1 FBB       0.140000
     15 H4           4.1970     0.4770     0.1500 hn         1 FBB       0.488500
     16 H5           4.0790    -1.2170     0.0540 hn         1 FBB       0.488500
@<TRIPOS>BOND
     1     1     2 1   
     2     2     3 ar  
     3     2     5 ar  
     4     3     4 ar  
     5     3    12 1   
     6     4    11 ar  
     7     4    13 1   
     8     5     6 ar  
     9     5    14 1   
    10     6     7 1   
    11     6    11 ar  
    12     7     8 1   
    13     8     9 1   
    14     8    10 2   
    15     9    15 1   
    16     9    16 1   
    17    10    11 1   
@<TRIPOS>SUBSTRUCTURE
     1 FBB         1 TEMP              0 ****  ****    0 ROOT
