@<TRIPOS>MOLECULE
FBC
   24    25     1     0     0
SMALL
No Charge or Current Charge


@<TRIPOS>ATOM
      1 FL1         -4.0580     2.3830     0.3690 f          1 FBC      -0.187000
      2 C1          -3.3900     1.2220     0.1930 ca         1 FBC       0.190000
      3 C6          -4.1040     0.0320     0.0140 ca         1 FBC      -0.226000
      4 C5          -3.4040    -1.1680    -0.1630 ca         1 FBC       0.190000
      5 FL2         -4.0860    -2.3200    -0.3410 f          1 FBC      -0.187000
      6 C4          -2.0020    -1.1810    -0.1610 ca         1 FBC      -0.174000
      7 C2          -1.9870     1.2180     0.1950 ca         1 FBC      -0.174000
      8 C3          -1.2610     0.0140     0.0180 cp         1 FBC       0.067000
      9 C12          0.2380     0.0050     0.0200 cp         1 FBC      -0.105000
     10 C7           0.9650    -1.0910     0.5460 ca         1 FBC      -0.117000
     11 C8           2.3700    -1.1020     0.5500 ca         1 FBC      -0.094500
     12 C11          0.9800     1.0910    -0.5040 ca         1 FBC      -0.117000
     13 C10          2.3860     1.0840    -0.5030 ca         1 FBC      -0.094500
     14 C9           3.1040    -0.0130     0.0240 ca         1 FBC      -0.111600
     15 C            4.6260    -0.0230     0.0260 c          1 FBC       0.710600
     16 OC3          5.2060    -0.9950     0.4920 o          1 FBC      -0.715000
     17 OC1          5.2190     0.9420    -0.4370 o          1 FBC      -0.715000
     18 H6          -5.1900     0.0380     0.0120 ha         1 FBC       0.136000
     19 H4          -1.4870    -2.1240    -0.3150 ha         1 FBC       0.140000
     20 H2          -1.4610     2.1550     0.3500 ha         1 FBC       0.140000
     21 H7           0.4360    -1.9410     0.9710 ha         1 FBC       0.090000
     22 H8           2.8890    -1.9620     0.9670 ha         1 FBC       0.131000
     23 H11          0.4630     1.9470    -0.9300 ha         1 FBC       0.090000
     24 H10          2.9160     1.9380    -0.9190 ha         1 FBC       0.131000
@<TRIPOS>BOND
     1     1     2 1   
     2     2     3 ar  
     3     2     7 ar  
     4     3     4 ar  
     5     3    18 1   
     6     4     5 1   
     7     4     6 ar  
     8     6     8 ar  
     9     6    19 1   
    10     7     8 ar  
    11     7    20 1   
    12     8     9 1   
    13     9    10 ar  
    14     9    12 ar  
    15    10    11 ar  
    16    10    21 1   
    17    11    14 ar  
    18    11    22 1   
    19    12    13 ar  
    20    12    23 1   
    21    13    14 ar  
    22    13    24 1   
    23    14    15 1   
    24    15    16 1   
    25    15    17 1   
@<TRIPOS>SUBSTRUCTURE
     1 FBC         1 TEMP              0 ****  ****    0 ROOT
