@<TRIPOS>MOLECULE
FBC
   24    25     1     0     0
SMALL
abcg2


@<TRIPOS>ATOM
      1 FL1         -3.9850     2.3330     0.3990 f          1 FBC      -0.187000
      2 C1          -3.3230     1.1860     0.2030 ca         1 FBC       0.190000
      3 C6          -4.0570     0.0320     0.0120 ca         1 FBC      -0.226000
      4 C5          -3.3370    -1.1320    -0.1750 ca         1 FBC       0.190000
      5 FL2         -4.0130    -2.2710    -0.3730 f          1 FBC      -0.187000
      6 C4          -1.9580    -1.1710    -0.1770 ca         1 FBC      -0.174000
      7 C2          -1.9430     1.2070     0.2120 ca         1 FBC      -0.174000
      8 C3          -1.2460     0.0130     0.0190 cp         1 FBC       0.067000
      9 C12          0.2300     0.0040     0.0210 cp         1 FBC      -0.105000
     10 C7           0.9400    -1.0730     0.5540 ca         1 FBC      -0.117000
     11 C8           2.3250    -1.0770     0.5570 ca         1 FBC      -0.094500
     12 C11          0.9540     1.0730    -0.5090 ca         1 FBC      -0.117000
     13 C10          2.3390     1.0600    -0.5080 ca         1 FBC      -0.094500
     14 C9           3.0490    -0.0130     0.0240 ca         1 FBC      -0.111600
     15 C            4.5730    -0.0220     0.0240 c          1 FBC       0.710600
     16 OC3          5.1230    -1.0110     0.5450 o          1 FBC      -0.715000
     17 OC1          5.1350     0.9600    -0.4970 o          1 FBC      -0.715000
     18 H6          -5.1390     0.0390     0.0100 ha         1 FBC       0.136000
     19 H4          -1.4470    -2.1090    -0.3530 ha         1 FBC       0.140000
     20 H2          -1.4210     2.1370     0.3920 ha         1 FBC       0.140000
     21 H7           0.4060    -1.9070     0.9920 ha         1 FBC       0.090000
     22 H8           2.8530    -1.9190     0.9850 ha         1 FBC       0.131000
     23 H11          0.4320     1.9150    -0.9470 ha         1 FBC       0.090000
     24 H10          2.8790     1.8950    -0.9350 ha         1 FBC       0.131000
@<TRIPOS>BOND
     1     1     2 1   
     2     2     3 ar  
     3     2     7 ar  
     4     3     4 ar  
     5     3    18 1   
     6     4     5 1   
     7     4     6 ar  
     8     6     8 ar  
     9     6    19 1   
    10     7     8 ar  
    11     7    20 1   
    12     8     9 1   
    13     9    10 ar  
    14     9    12 ar  
    15    10    11 ar  
    16    10    21 1   
    17    11    14 ar  
    18    11    22 1   
    19    12    13 ar  
    20    12    23 1   
    21    13    14 ar  
    22    13    24 1   
    23    14    15 1   
    24    15    16 1   
    25    15    17 1   
@<TRIPOS>SUBSTRUCTURE
     1 FBC         1 TEMP              0 ****  ****    0 ROOT
