@<TRIPOS>MOLECULE
FBD
   43    43     1     0     0
SMALL
abcg2


@<TRIPOS>ATOM
      1 F21         -7.3800    -3.1010     0.2590 f          1 FBD      -0.205000
      2 C20         -6.5680    -2.0370     0.3800 ca         1 FBD       0.140000
      3 C22         -6.4410    -1.1680    -0.6860 ca         1 FBD      -0.156000
      4 C23         -5.6000    -0.0730    -0.5500 ca         1 FBD      -0.075000
      5 C19         -5.8880    -1.8460     1.5680 ca         1 FBD      -0.156000
      6 C18         -5.0530    -0.7440     1.6830 ca         1 FBD      -0.075000
      7 C17         -4.9030     0.1580     0.6340 ca         1 FBD      -0.042300
      8 C16         -3.9760     1.3280     0.7570 c3         1 FBD       0.063900
      9 S15         -2.3250     0.8230     0.1730 ss         1 FBD      -0.392000
     10 C14         -1.4260     2.3810     0.4330 c3         1 FBD       0.091600
     11 C13         -0.1160     2.3650    -0.3420 c3         1 FBD      -0.030300
     12 C24          0.6400     3.7070    -0.1340 c          1 FBD       0.708000
     13 O25          0.0050     4.7270    -0.4670 o          1 FBD      -0.731000
     14 O26          1.7870     3.6510     0.3400 o          1 FBD      -0.731000
     15 N12          0.6490     1.1980     0.0230 ns         1 FBD      -0.474900
     16 C11          1.6810     0.7880    -0.7730 c          1 FBD       0.650100
     17 O27          1.7870     1.1360    -1.9450 o          1 FBD      -0.669100
     18 N10          2.5830    -0.0330    -0.1710 ns         1 FBD      -0.446900
     19 C6           3.4660    -0.8390    -0.9860 c3         1 FBD      -0.037300
     20 C7           2.7110    -1.8330    -1.9010 c          1 FBD       0.713000
     21 O8           3.3700    -2.2830    -2.8620 o          1 FBD      -0.759000
     22 O9           1.5440    -2.1310    -1.5900 o          1 FBD      -0.759000
     23 C5           4.4370    -1.6060    -0.0870 c3         1 FBD      -0.050400
     24 C4           5.3330    -0.7140     0.7570 c3         1 FBD      -0.198400
     25 C2           6.3470    -1.4480     1.6510 c          1 FBD       0.709000
     26 O3           7.0660    -0.7220     2.3720 o          1 FBD      -0.775500
     27 O1           6.3840    -2.6930     1.5960 o          1 FBD      -0.775500
     28 H22         -6.9880    -1.3400    -1.6030 ha         1 FBD       0.115000
     29 H23         -5.4900     0.6140    -1.3800 ha         1 FBD       0.122000
     30 H19         -6.0090    -2.5420     2.3880 ha         1 FBD       0.115000
     31 H18         -4.5160    -0.5850     2.6100 ha         1 FBD       0.122000
     32 H16         -4.3260     2.1680     0.1560 h1         1 FBD       0.049700
     33 H16A        -3.9060     1.6610     1.7940 h1         1 FBD       0.049700
     34 H14         -2.0390     3.2090     0.0790 h1         1 FBD       0.046700
     35 H14A        -1.2500     2.5270     1.5030 h1         1 FBD       0.046700
     36 H13         -0.3610     2.2820    -1.4030 h1         1 FBD       0.080700
     37 HN12         0.7870     1.0810     1.0160 hn         1 FBD       0.269500
     38 HN10         2.2910    -0.4630     0.6940 hn         1 FBD       0.273500
     39 H6           4.0550    -0.1700    -1.6210 h1         1 FBD       0.055700
     40 H5           3.8710    -2.2870     0.5580 hc         1 FBD       0.036700
     41 H5A          5.0530    -2.2380    -0.7290 hc         1 FBD       0.036700
     42 H4           5.8890    -0.0340     0.1000 hc         1 FBD       0.021200
     43 H4A          4.7290    -0.0590     1.3930 hc         1 FBD       0.021200
@<TRIPOS>BOND
     1     1     2 1   
     2     2     3 ar  
     3     2     5 ar  
     4     3     4 ar  
     5     3    28 1   
     6     4     7 ar  
     7     4    29 1   
     8     5     6 ar  
     9     5    30 1   
    10     6     7 ar  
    11     6    31 1   
    12     7     8 1   
    13     8     9 1   
    14     8    32 1   
    15     8    33 1   
    16     9    10 1   
    17    10    11 1   
    18    10    34 1   
    19    10    35 1   
    20    11    12 1   
    21    11    15 1   
    22    11    36 1   
    23    12    13 1   
    24    12    14 1   
    25    15    16 1   
    26    15    37 1   
    27    16    17 2   
    28    16    18 1   
    29    18    19 1   
    30    18    38 1   
    31    19    20 1   
    32    19    23 1   
    33    19    39 1   
    34    20    21 1   
    35    20    22 1   
    36    23    24 1   
    37    23    40 1   
    38    23    41 1   
    39    24    25 1   
    40    24    42 1   
    41    24    43 1   
    42    25    26 1   
    43    25    27 1   
@<TRIPOS>SUBSTRUCTURE
     1 FBD         1 TEMP              0 ****  ****    0 ROOT
