@<TRIPOS>MOLECULE
FBD
   43    43     1     0     0
SMALL
No Charge or Current Charge


@<TRIPOS>ATOM
      1 F21         -7.2250    -2.7700    -1.4640 f          1 FBD      -0.205000
      2 C20         -6.4100    -1.8260    -0.9460 ca         1 FBD       0.140000
      3 C22         -6.3060    -0.5740    -1.5710 ca         1 FBD      -0.156000
      4 C23         -5.4570     0.4100    -1.0320 ca         1 FBD      -0.075000
      5 C19         -5.6710    -2.1020     0.2150 ca         1 FBD      -0.156000
      6 C18         -4.8230    -1.1190     0.7550 ca         1 FBD      -0.075000
      7 C17         -4.7130     0.1420     0.1350 ca         1 FBD      -0.042300
      8 C16         -3.7960     1.2050     0.7190 c3         1 FBD       0.063900
      9 S15         -2.0930     1.0630     0.0200 ss         1 FBD      -0.392000
     10 C14         -1.2690     2.4610     0.9130 c3         1 FBD       0.091600
     11 C13          0.2250     2.5900     0.5370 c3         1 FBD      -0.030300
     12 C24          0.8320     3.8750     1.1690 c          1 FBD       0.708000
     13 O25          1.3050     4.7190     0.4210 o          1 FBD      -0.731000
     14 O26          0.8460     3.9790     2.3890 o          1 FBD      -0.731000
     15 N12          1.0130     1.3930     0.9340 ns         1 FBD      -0.474900
     16 C11          1.5160     0.4530     0.0690 c          1 FBD       0.650100
     17 O27          1.4130     0.5220    -1.1460 o          1 FBD      -0.669100
     18 N10          2.1520    -0.5690     0.7300 ns         1 FBD      -0.446900
     19 C6           2.8300    -1.7210     0.0850 c3         1 FBD      -0.037300
     20 C7           2.4880    -3.0420     0.8430 c          1 FBD       0.713000
     21 O8           1.9780    -3.9570     0.2110 o          1 FBD      -0.759000
     22 O9           2.6700    -3.0920     2.0530 o          1 FBD      -0.759000
     23 C5           4.3660    -1.5160    -0.0220 c3         1 FBD      -0.050400
     24 C4           4.8010    -0.3180    -0.9060 c3         1 FBD      -0.198400
     25 C2           6.3340    -0.2830    -1.0370 c          1 FBD       0.709000
     26 O3           6.9740     0.3350    -0.2000 o          1 FBD      -0.775500
     27 O1           6.8530    -0.9130    -1.9460 o          1 FBD      -0.775500
     28 H22         -6.8800    -0.3660    -2.4710 ha         1 FBD       0.115000
     29 H23         -5.3760     1.3790    -1.5190 ha         1 FBD       0.122000
     30 H19         -5.7560    -3.0740     0.6930 ha         1 FBD       0.115000
     31 H18         -4.2480    -1.3360     1.6530 ha         1 FBD       0.122000
     32 H16         -4.1930     2.2040     0.4960 h1         1 FBD       0.049700
     33 H16A        -3.7460     1.0950     1.8100 h1         1 FBD       0.049700
     34 H14         -1.7890     3.3920     0.6560 h1         1 FBD       0.046700
     35 H14A        -1.3680     2.3000     1.9940 h1         1 FBD       0.046700
     36 H13          0.2900     2.7150    -0.5500 h1         1 FBD       0.080700
     37 HN12         1.1810     1.2440     1.9210 hn         1 FBD       0.269500
     38 HN10         2.1540    -0.5300     1.7400 hn         1 FBD       0.273500
     39 H6           2.4310    -1.8310    -0.9310 h1         1 FBD       0.055700
     40 H5           4.7870    -1.3940     0.9840 hc         1 FBD       0.036700
     41 H5A          4.8060    -2.4320    -0.4350 hc         1 FBD       0.036700
     42 H4           4.3380    -0.4850    -1.8860 hc         1 FBD       0.021200
     43 H4A          4.4430     0.5850    -0.3960 hc         1 FBD       0.021200
@<TRIPOS>BOND
     1     1     2 1   
     2     2     3 ar  
     3     2     5 ar  
     4     3     4 ar  
     5     3    28 1   
     6     4     7 ar  
     7     4    29 1   
     8     5     6 ar  
     9     5    30 1   
    10     6     7 ar  
    11     6    31 1   
    12     7     8 1   
    13     8     9 1   
    14     8    32 1   
    15     8    33 1   
    16     9    10 1   
    17    10    11 1   
    18    10    34 1   
    19    10    35 1   
    20    11    12 1   
    21    11    15 1   
    22    11    36 1   
    23    12    13 1   
    24    12    14 1   
    25    15    16 1   
    26    15    37 1   
    27    16    17 2   
    28    16    18 1   
    29    18    19 1   
    30    18    38 1   
    31    19    20 1   
    32    19    23 1   
    33    19    39 1   
    34    20    21 1   
    35    20    22 1   
    36    23    24 1   
    37    23    40 1   
    38    23    41 1   
    39    24    25 1   
    40    24    42 1   
    41    24    43 1   
    42    25    26 1   
    43    25    27 1   
@<TRIPOS>SUBSTRUCTURE
     1 FBD         1 TEMP              0 ****  ****    0 ROOT
