@<TRIPOS>MOLECULE
FBE
   16    15     1     0     0
SMALL
No Charge or Current Charge


@<TRIPOS>ATOM
      1 C           -1.9860    -0.1370    -0.1040 c          1 FBE       0.724000
      2 O           -2.5210    -0.8000     0.7720 o          1 FBE      -0.733500
      3 C1          -1.0040     0.9680     0.3260 c3         1 FBE      -0.197200
      4 C2           0.3880     0.4010     0.5510 c2         1 FBE      -0.094200
      5 C3           1.5200     0.8810     0.0090 c2         1 FBE      -0.320200
      6 C4           2.9010     0.3370     0.2480 c3         1 FBE       0.200000
      7 N            3.0730    -0.8800    -0.5400 n8         1 FBE      -0.974200
      8 O2          -2.0870    -0.3880    -1.2960 o          1 FBE      -0.733500
      9 H11         -0.9270     1.7270    -0.4630 hc         1 FBE       0.027700
     10 H12         -1.3180     1.3840     1.2910 hc         1 FBE       0.027700
     11 H2           0.4230    -0.4650     1.2170 ha         1 FBE       0.159000
     12 H3           1.4920     1.7480    -0.6520 ha         1 FBE       0.151000
     13 H41          3.6600     1.0700    -0.0610 h1         1 FBE       0.011700
     14 H42          3.0480     0.1000     1.3110 h1         1 FBE       0.011700
     15 HN1          2.9750    -0.6390    -1.5320 hn         1 FBE       0.370500
     16 HN2          4.0460    -1.1930    -0.4540 hn         1 FBE       0.370500
@<TRIPOS>BOND
     1     1     2 1   
     2     1     3 1   
     3     1     8 1   
     4     3     4 1   
     5     3     9 1   
     6     3    10 1   
     7     4     5 2   
     8     4    11 1   
     9     5     6 1   
    10     5    12 1   
    11     6     7 1   
    12     6    13 1   
    13     6    14 1   
    14     7    15 1   
    15     7    16 1   
@<TRIPOS>SUBSTRUCTURE
     1 FBE         1 TEMP              0 ****  ****    0 ROOT
