@<TRIPOS>MOLECULE
FBE
   16    15     1     0     0
SMALL
bcc


@<TRIPOS>ATOM
      1 C           -2.0670    -0.1320    -0.0090 c          1 FBE       0.934600
      2 O           -1.7310    -1.2800     0.3380 o          1 FBE      -0.838800
      3 C1          -0.9950     0.9780     0.0610 c3         1 FBE      -0.197200
      4 C2           0.3420     0.5170     0.5340 c2         1 FBE      -0.044200
      5 C3           1.4820     0.6480    -0.1380 c2         1 FBE      -0.270200
      6 C4           2.8240     0.2050     0.3560 c3         1 FBE       0.200000
      7 N            3.3960    -0.8170    -0.5210 n8         1 FBE      -0.863800
      8 O2          -3.1930     0.2280    -0.4090 o          1 FBE      -0.838800
      9 H11         -0.9090     1.4520    -0.9220 hc         1 FBE       0.027700
     10 H12         -1.3730     1.7610     0.7290 hc         1 FBE       0.027700
     11 H2           0.3730     0.0530     1.5170 ha         1 FBE       0.109000
     12 H3           1.4660     1.1130    -1.1240 ha         1 FBE       0.101000
     13 H41          3.4740     1.0860     0.4590 h1         1 FBE       0.011700
     14 H42          2.7200    -0.2190     1.3580 h1         1 FBE       0.011700
     15 HN1          3.5620    -0.4110    -1.4340 hn         1 FBE       0.315300
     16 HN2          4.3140    -1.0680    -0.1730 hn         1 FBE       0.315300
@<TRIPOS>BOND
     1     1     2 1   
     2     1     3 1   
     3     1     8 1   
     4     3     4 1   
     5     3     9 1   
     6     3    10 1   
     7     4     5 2   
     8     4    11 1   
     9     5     6 1   
    10     5    12 1   
    11     6     7 1   
    12     6    13 1   
    13     6    14 1   
    14     7    15 1   
    15     7    16 1   
@<TRIPOS>SUBSTRUCTURE
     1 FBE         1 TEMP              0 ****  ****    0 ROOT
