@<TRIPOS>MOLECULE
FBF
   20    20     1     0     0
SMALL
No Charge or Current Charge


@<TRIPOS>ATOM
      1 C1          -1.1490    -1.1590     0.2180 ca         1 FBF      -0.086500
      2 C2           0.2570    -1.1700     0.1810 ca         1 FBF      -0.070000
      3 C3           0.9820     0.0290     0.0250 ca         1 FBF      -0.186300
      4 C4           0.2700     1.2400    -0.0980 ca         1 FBF      -0.070000
      5 C5          -1.1350     1.2510    -0.0600 ca         1 FBF      -0.086500
      6 C6          -1.8690     0.0510     0.0810 ca         1 FBF      -0.112900
      7 C7          -3.3700     0.0830     0.1520 ce         1 FBF       0.655800
      8 N8          -4.0350     1.1380     0.3920 n2         1 FBF      -0.821100
      9 N9          -4.0510    -1.0450    -0.1530 nv         1 FBF      -1.075200
     10 C10          2.5150     0.0150    -0.0260 c3         1 FBF       0.356300
     11 F11          3.0450    -0.9890     0.7110 f          1 FBF      -0.113333
     12 F12          2.9630    -0.1460    -1.2910 f          1 FBF      -0.113333
     13 F13          3.0580     1.1620     0.4420 f          1 FBF      -0.113333
     14 H1          -1.6700    -2.1020     0.3650 ha         1 FBF       0.135000
     15 H2           0.7790    -2.1200     0.2780 ha         1 FBF       0.132500
     16 H4           0.8010     2.1820    -0.2250 ha         1 FBF       0.132500
     17 H5          -1.6550     2.2020    -0.1530 ha         1 FBF       0.135000
     18 HN8         -5.0020     0.8630     0.5970 hn         1 FBF       0.375400
     19 HN9         -3.5090    -1.7540    -0.6330 hn         1 FBF       0.464000
     20 HN9A        -4.9930    -0.9180    -0.5050 hn         1 FBF       0.464000
@<TRIPOS>BOND
     1     1     2 ar  
     2     1     6 ar  
     3     1    14 1   
     4     2     3 ar  
     5     2    15 1   
     6     3     4 ar  
     7     3    10 1   
     8     4     5 ar  
     9     4    16 1   
    10     5     6 ar  
    11     5    17 1   
    12     6     7 1   
    13     7     8 2   
    14     7     9 1   
    15     8    18 1   
    16     9    19 1   
    17     9    20 1   
    18    10    11 1   
    19    10    12 1   
    20    10    13 1   
@<TRIPOS>SUBSTRUCTURE
     1 FBF         1 TEMP              0 ****  ****    0 ROOT
