@<TRIPOS>MOLECULE
FBF
   20    20     1     0     0
SMALL
bcc


@<TRIPOS>ATOM
      1 C1          -1.1410    -1.1560     0.2510 ca         1 FBF      -0.104500
      2 C2           0.2460    -1.1670     0.2300 ca         1 FBF      -0.088000
      3 C3           0.9440     0.0180     0.0470 ca         1 FBF      -0.186300
      4 C4           0.2490     1.2140    -0.1160 ca         1 FBF      -0.088000
      5 C5          -1.1330     1.2190    -0.0860 ca         1 FBF      -0.104500
      6 C6          -1.8450     0.0340     0.0910 ca         1 FBF      -0.112900
      7 C7          -3.3340     0.0770     0.1280 ce         1 FBF       0.655800
      8 N8          -3.8980     1.1640     0.4920 n2         1 FBF      -0.821100
      9 N9          -3.9580    -1.0930    -0.1880 nv         1 FBF      -0.964800
     10 C10          2.4380     0.0230    -0.0240 c3         1 FBF       0.720200
     11 F11          2.9830    -1.0570     0.5440 f          1 FBF      -0.234633
     12 F12          2.8710     0.0530    -1.2940 f          1 FBF      -0.234633
     13 F13          2.9660     1.0940     0.5830 f          1 FBF      -0.234633
     14 H1          -1.6620    -2.0890     0.4170 ha         1 FBF       0.153000
     15 H2           0.7640    -2.1060     0.3660 ha         1 FBF       0.150500
     16 H4           0.7770     2.1470    -0.2660 ha         1 FBF       0.150500
     17 H5          -1.6690     2.1500    -0.2100 ha         1 FBF       0.153000
     18 HN8         -4.9100     1.0850     0.4520 hn         1 FBF       0.375400
     19 HN9         -3.4990    -1.7300    -0.8190 hn         1 FBF       0.408800
     20 HN9A        -4.9590    -1.0690    -0.3020 hn         1 FBF       0.408800
@<TRIPOS>BOND
     1     1     2 ar  
     2     1     6 ar  
     3     1    14 1   
     4     2     3 ar  
     5     2    15 1   
     6     3     4 ar  
     7     3    10 1   
     8     4     5 ar  
     9     4    16 1   
    10     5     6 ar  
    11     5    17 1   
    12     6     7 1   
    13     7     8 2   
    14     7     9 1   
    15     8    18 1   
    16     9    19 1   
    17     9    20 1   
    18    10    11 1   
    19    10    12 1   
    20    10    13 1   
@<TRIPOS>SUBSTRUCTURE
     1 FBF         1 TEMP              0 ****  ****    0 ROOT
