@<TRIPOS>MOLECULE
FBG
   20    21     1     0     0
SMALL
No Charge or Current Charge


@<TRIPOS>ATOM
      1 F14          2.1000    -2.9980    -0.0800 f          1 FBG      -0.208000
      2 C5           1.2690    -1.9330    -0.0580 ca         1 FBG       0.103000
      3 C6           1.8010    -0.6350    -0.0240 ca         1 FBG      -0.097000
      4 C1           0.9420     0.4870    -0.0060 ca         1 FBG      -0.128600
      5 C11          1.5290     1.8720     0.0260 c          1 FBG       0.719600
      6 O13          1.1960     2.6710    -0.8390 o          1 FBG      -0.706500
      7 O12          2.3940     2.1050     0.8590 o          1 FBG      -0.706500
      8 C4          -0.1190    -2.1330    -0.0630 ca         1 FBG      -0.139000
      9 C3          -0.9870    -1.0250    -0.0340 ca         1 FBG      -0.220300
     10 C7          -2.5020    -1.2340    -0.0130 c6         1 FBG       0.209900
     11 O8          -3.1310    -0.0390     0.4840 os         1 FBG      -0.473000
     12 C9          -2.7060     1.1430    -0.2180 c6         1 FBG       0.364600
     13 O10         -1.3110     1.3640     0.0540 os         1 FBG      -0.301100
     14 C2          -0.4550     0.2850    -0.0130 ca         1 FBG       0.148100
     15 H1           2.8800    -0.4970    -0.0180 ha         1 FBG       0.153000
     16 H3          -0.5170    -3.1450    -0.0830 ha         1 FBG       0.103000
     17 H4          -2.8680    -1.4460    -1.0280 h1         1 FBG       0.039700
     18 H5          -2.7670    -2.0780     0.6400 h1         1 FBG       0.039700
     19 H6          -2.8600     1.0140    -1.2990 h2         1 FBG       0.050200
     20 H7          -3.2890     2.0130     0.1190 h2         1 FBG       0.050200
@<TRIPOS>BOND
     1     1     2 1   
     2     2     3 ar  
     3     2     8 ar  
     4     3     4 ar  
     5     3    15 1   
     6     4     5 1   
     7     4    14 ar  
     8     5     6 1   
     9     5     7 1   
    10     8     9 ar  
    11     8    16 1   
    12     9    10 1   
    13     9    14 ar  
    14    10    11 1   
    15    10    17 1   
    16    10    18 1   
    17    11    12 1   
    18    12    13 1   
    19    12    19 1   
    20    12    20 1   
    21    13    14 1   
@<TRIPOS>SUBSTRUCTURE
     1 FBG         1 TEMP              0 ****  ****    0 ROOT
