@<TRIPOS>MOLECULE
FBG
   20    21     1     0     0
SMALL
abcg2


@<TRIPOS>ATOM
      1 F14          2.0360    -2.9340    -0.1290 f          1 FBG      -0.208000
      2 C5           1.2040    -1.8760    -0.0750 ca         1 FBG       0.103000
      3 C6           1.7360    -0.6070    -0.0020 ca         1 FBG      -0.097000
      4 C1           0.9070     0.5110     0.0360 ca         1 FBG      -0.128600
      5 C11          1.5790     1.8880     0.0930 c          1 FBG       0.719600
      6 O13          0.8720     2.8880    -0.1090 o          1 FBG      -0.706500
      7 O12          2.8020     1.8770     0.3320 o          1 FBG      -0.706500
      8 C4          -0.1550    -2.0940    -0.0770 ca         1 FBG      -0.139000
      9 C3          -1.0050    -0.9980    -0.0180 ca         1 FBG      -0.220300
     10 C7          -2.4950    -1.2090     0.0390 c6         1 FBG       0.209900
     11 O8          -3.1660    -0.0130     0.3710 os         1 FBG      -0.473000
     12 C9          -2.6460     1.0510    -0.3510 c6         1 FBG       0.364600
     13 O10         -1.3320     1.3520     0.0490 os         1 FBG      -0.301100
     14 C2          -0.4800     0.2980     0.0130 ca         1 FBG       0.148100
     15 H1           2.8080    -0.4680     0.0200 ha         1 FBG       0.153000
     16 H3          -0.5550    -3.1010    -0.1070 ha         1 FBG       0.103000
     17 H4          -2.8600    -1.6060    -0.9170 h1         1 FBG       0.039700
     18 H5          -2.7440    -1.9400     0.8100 h1         1 FBG       0.039700
     19 H6          -2.6610     0.8400    -1.4310 h2         1 FBG       0.050200
     20 H7          -3.2460     1.9330    -0.1410 h2         1 FBG       0.050200
@<TRIPOS>BOND
     1     1     2 1   
     2     2     3 ar  
     3     2     8 ar  
     4     3     4 ar  
     5     3    15 1   
     6     4     5 1   
     7     4    14 ar  
     8     5     6 1   
     9     5     7 1   
    10     8     9 ar  
    11     8    16 1   
    12     9    10 1   
    13     9    14 ar  
    14    10    11 1   
    15    10    17 1   
    16    10    18 1   
    17    11    12 1   
    18    12    13 1   
    19    12    19 1   
    20    12    20 1   
    21    13    14 1   
@<TRIPOS>SUBSTRUCTURE
     1 FBG         1 TEMP              0 ****  ****    0 ROOT
