@<TRIPOS>MOLECULE
FBI
   62    63     1     0     0
SMALL
No Charge or Current Charge


@<TRIPOS>ATOM
      1 O1S         -0.4340     1.7290    -6.8120 o          1 FBI      -0.534500
      2 O2S          0.6010     2.3180    -4.5750 o          1 FBI      -0.534500
      3 N3          -1.2160     0.4820    -4.6870 nh         1 FBI      -0.732200
      4 C12         -2.4930     0.3650    -5.4340 c3         1 FBI       0.225100
      5 S1           0.0780     1.3090    -5.5020 s6         1 FBI       1.224100
      6 C13          1.3390     0.0720    -5.7780 c3         1 FBI      -0.344100
      7 C8           0.2690    -0.5250    -1.5640 cp         1 FBI       0.219500
      8 C10         -0.8760    -0.8550    -0.7870 ca         1 FBI      -0.173300
      9 C9          -2.1390    -0.6900    -1.4150 ca         1 FBI       0.162300
     10 N2          -2.2240    -0.2690    -2.6950 nb         1 FBI      -0.211000
     11 C11         -1.0860     0.0270    -3.3500 ca         1 FBI       0.371900
     12 N1           0.1450    -0.0770    -2.8240 nb         1 FBI      -0.254000
     13 C83          3.5960    -1.8860    -0.2570 ca         1 FBI      -0.160500
     14 C82          2.2750    -1.8330    -0.7330 ca         1 FBI      -0.052500
     15 C81          1.6680    -0.5920    -1.0500 cp         1 FBI      -0.173500
     16 C86          2.4340     0.5910    -0.9010 ca         1 FBI      -0.052500
     17 C85          3.7550     0.5370    -0.4250 ca         1 FBI      -0.160500
     18 C84          4.3300    -0.7010    -0.1020 ca         1 FBI       0.181000
     19 F1           5.6010    -0.7520     0.3550 f          1 FBI      -0.179000
     20 O1B         -0.2540     1.1670     8.7230 o          1 FBI      -0.736500
     21 O1A         -2.3280     1.1090     8.1470 o          1 FBI      -0.736500
     22 O3           0.5200    -0.3130     5.9160 oh         1 FBI      -0.641000
     23 C2          -0.7720     1.6750     6.4580 c3         1 FBI      -0.231400
     24 C3          -0.6580     0.4120     5.5750 c3         1 FBI       0.188300
     25 C4          -0.5940     0.7480     4.0630 c3         1 FBI      -0.148400
     26 C5          -0.5300    -0.4880     3.1290 c3         1 FBI       0.167300
     27 C6          -0.6690    -0.1000     1.6380 c3         1 FBI      -0.114400
     28 C92         -4.6260    -0.0330    -1.1460 c3         1 FBI      -0.082600
     29 C93         -3.8870    -2.4670    -0.9200 c3         1 FBI      -0.082600
     30 O5           0.7220    -1.1560     3.3220 oh         1 FBI      -0.656000
     31 H121        -3.1180    -0.4470    -5.0400 h1         1 FBI       0.055367
     32 H122        -3.0620     1.3020    -5.3730 h1         1 FBI       0.055367
     33 H123        -2.3160     0.1270    -6.4910 h1         1 FBI       0.055367
     34 H131         2.1130     0.5340    -6.3970 h1         1 FBI       0.107700
     35 H132         1.7450    -0.2350    -4.8110 h1         1 FBI       0.107700
     36 H133         0.8640    -0.7660    -6.2970 h1         1 FBI       0.107700
     37 H83          4.0520    -2.8410    -0.0120 ha         1 FBI       0.134000
     38 H82          1.7150    -2.7580    -0.8620 ha         1 FBI       0.133000
     39 H86          1.9930     1.5550    -1.1520 ha         1 FBI       0.133000
     40 H85          4.3320     1.4500    -0.3080 ha         1 FBI       0.134000
     41 HO3          0.7790    -0.7570     5.0690 ho         1 FBI       0.421000
     42 H21          0.1960     2.1910     6.4220 hc         1 FBI       0.017200
     43 H22         -1.5920     2.2560     6.0180 hc         1 FBI       0.017200
     44 H3          -1.5490    -0.2120     5.7420 h1         1 FBI       0.078700
     45 H41          0.2650     1.4020     3.8660 hc         1 FBI       0.038200
     46 H42         -1.4880     1.3270     3.8050 hc         1 FBI       0.038200
     47 H5          -1.3640    -1.1570     3.3890 h1         1 FBI       0.080700
     48 H61          0.1690     0.5470     1.3490 hc         1 FBI       0.045700
     49 H62         -1.5790     0.4980     1.5120 hc         1 FBI       0.045700
     50 H71         -1.5670    -1.9630     0.9700 hc         1 FBI       0.059700
     51 H72          0.1510    -1.9280     0.8030 hc         1 FBI       0.059700
     52 H91         -3.3710    -0.8260     0.3590 hc         1 FBI       0.069700
     53 H921        -4.3280     1.0130    -1.0060 hc         1 FBI       0.040533
     54 H922        -4.8990    -0.1780    -2.1980 hc         1 FBI       0.040533
     55 H923        -5.5220    -0.2110    -0.5390 hc         1 FBI       0.040533
     56 H931        -3.0990    -3.1390    -0.5610 hc         1 FBI       0.040533
     57 H932        -4.8070    -2.6970    -0.3690 hc         1 FBI       0.040533
     58 H933        -4.0590    -2.6810    -1.9820 hc         1 FBI       0.040533
     59 HO5          1.3000    -0.8960     2.5720 ho         1 FBI       0.428000
     60 C7          -0.7410    -1.3070     0.6730 c3         1 FBI      -0.021100
     61 C91         -3.4820    -0.9890    -0.7190 c3         1 FBI      -0.119000
     62 C1          -1.1450     1.2830     7.8940 c          1 FBI       0.728000
@<TRIPOS>BOND
     1     1     5 2   
     2     2     5 2   
     3     3     4 1   
     4     3     5 1   
     5     3    11 1   
     6     4    31 1   
     7     4    32 1   
     8     4    33 1   
     9     5     6 1   
    10     6    34 1   
    11     6    35 1   
    12     6    36 1   
    13     7     8 ar  
    14     7    12 ar  
    15     7    15 1   
    16     8     9 ar  
    17     8    60 1   
    18     9    10 ar  
    19     9    61 1   
    20    10    11 ar  
    21    11    12 ar  
    22    13    14 ar  
    23    13    18 ar  
    24    13    37 1   
    25    14    15 ar  
    26    14    38 1   
    27    15    16 ar  
    28    16    17 ar  
    29    16    39 1   
    30    17    18 ar  
    31    17    40 1   
    32    18    19 1   
    33    20    62 1   
    34    21    62 1   
    35    22    24 1   
    36    22    41 1   
    37    23    24 1   
    38    23    42 1   
    39    23    43 1   
    40    23    62 1   
    41    24    25 1   
    42    24    44 1   
    43    25    26 1   
    44    25    45 1   
    45    25    46 1   
    46    26    27 1   
    47    26    30 1   
    48    26    47 1   
    49    27    48 1   
    50    27    49 1   
    51    27    60 1   
    52    28    53 1   
    53    28    54 1   
    54    28    55 1   
    55    28    61 1   
    56    29    56 1   
    57    29    57 1   
    58    29    58 1   
    59    29    61 1   
    60    30    59 1   
    61    50    60 1   
    62    51    60 1   
    63    52    61 1   
@<TRIPOS>SUBSTRUCTURE
     1 FBI         1 TEMP              0 ****  ****    0 ROOT
