@<TRIPOS>MOLECULE
FBI
   62    63     1     0     0
SMALL
abcg2


@<TRIPOS>ATOM
      1 O1S         -0.7960     2.1040    -6.2800 o          1 FBI      -0.534500
      2 O2S          0.3520     2.3840    -4.0840 o          1 FBI      -0.534500
      3 N3          -1.2680     0.4290    -4.4790 nh         1 FBI      -0.732200
      4 C12         -2.6120     0.3830    -5.0490 c3         1 FBI       0.225100
      5 S1          -0.1430     1.5020    -5.1270 s6         1 FBI       1.224100
      6 C13          1.1780     0.4760    -5.7150 c3         1 FBI      -0.344100
      7 C8           0.4380    -0.6850    -1.6070 cp         1 FBI       0.219500
      8 C10         -0.6040    -0.9880    -0.7220 ca         1 FBI      -0.173300
      9 C9          -1.8940    -0.8480    -1.2520 ca         1 FBI       0.162300
     10 N2          -2.1030    -0.3940    -2.4850 nb         1 FBI      -0.211000
     11 C11         -1.0450    -0.0800    -3.2030 ca         1 FBI       0.371900
     12 N1           0.2110    -0.2340    -2.8350 nb         1 FBI      -0.254000
     13 C83          3.7640    -2.1410    -0.5360 ca         1 FBI      -0.160500
     14 C82          2.4050    -2.0140    -0.7790 ca         1 FBI      -0.052500
     15 C81          1.8750    -0.8260    -1.2760 cp         1 FBI      -0.173500
     16 C86          2.7370     0.2350    -1.5500 ca         1 FBI      -0.052500
     17 C85          4.0960     0.1300    -1.3000 ca         1 FBI      -0.160500
     18 C84          4.5850    -1.0600    -0.7950 ca         1 FBI       0.181000
     19 F1           5.9000    -1.1740    -0.5600 f          1 FBI      -0.179000
     20 O1B         -1.1490     2.0190     8.6040 o          1 FBI      -0.736500
     21 O1A         -2.9380     1.0550     7.6930 o          1 FBI      -0.736500
     22 O3          -0.5550    -0.5280     6.0400 oh         1 FBI      -0.641000
     23 C2          -1.2210     1.7930     6.2310 c3         1 FBI      -0.231400
     24 C3          -1.2470     0.5230     5.3910 c3         1 FBI       0.188300
     25 C4          -0.7380     0.7870     3.9750 c3         1 FBI      -0.148400
     26 C5          -0.5370    -0.4610     3.1150 c3         1 FBI       0.167300
     27 C6          -0.6190    -0.1230     1.6290 c3         1 FBI      -0.114400
     28 C92         -4.1510    -0.0640    -0.4840 c3         1 FBI      -0.082600
     29 C93         -3.7600    -2.4740    -1.1130 c3         1 FBI      -0.082600
     30 O5           0.6740    -1.1290     3.4270 oh         1 FBI      -0.656000
     31 H121        -3.0580    -0.5710    -4.7830 h1         1 FBI       0.055367
     32 H122        -3.2510     1.1820    -4.6750 h1         1 FBI       0.055367
     33 H123        -2.5560     0.4410    -6.1310 h1         1 FBI       0.055367
     34 H131         1.8830     1.1290    -6.2290 h1         1 FBI       0.107700
     35 H132         1.6550    -0.0150    -4.8740 h1         1 FBI       0.107700
     36 H133         0.7700    -0.2540    -6.4090 h1         1 FBI       0.107700
     37 H83          4.1750    -3.0680    -0.1590 ha         1 FBI       0.134000
     38 H82          1.7610    -2.8660    -0.6010 ha         1 FBI       0.133000
     39 H86          2.3410     1.1520    -1.9650 ha         1 FBI       0.133000
     40 H85          4.7640     0.9570    -1.5000 ha         1 FBI       0.134000
     41 HO3          0.3880    -0.4050     5.8950 ho         1 FBI       0.421000
     42 H21         -0.1940     2.1680     6.2920 hc         1 FBI       0.017200
     43 H22         -1.8010     2.5660     5.7130 hc         1 FBI       0.017200
     44 H3          -2.2840     0.1800     5.3160 h1         1 FBI       0.078700
     45 H41          0.2070     1.3470     4.0050 hc         1 FBI       0.038200
     46 H42         -1.4570     1.4520     3.4870 hc         1 FBI       0.038200
     47 H5          -1.3300    -1.1850     3.3360 h1         1 FBI       0.080700
     48 H61          0.1060     0.6630     1.3820 hc         1 FBI       0.045700
     49 H62         -1.6060     0.3050     1.4300 hc         1 FBI       0.045700
     50 H71         -1.0250    -2.1620     1.0260 hc         1 FBI       0.059700
     51 H72          0.6370    -1.6870     0.8800 hc         1 FBI       0.059700
     52 H91         -2.8910    -1.4450     0.5390 hc         1 FBI       0.069700
     53 H921        -3.7350     0.8290    -0.0120 hc         1 FBI       0.040533
     54 H922        -4.4570     0.2010    -1.4950 hc         1 FBI       0.040533
     55 H923        -5.0400    -0.3520     0.0780 hc         1 FBI       0.040533
     56 H931        -3.0620    -3.3120    -1.0930 hc         1 FBI       0.040533
     57 H932        -4.6520    -2.7680    -0.5590 hc         1 FBI       0.040533
     58 H933        -4.0480    -2.2980    -2.1500 hc         1 FBI       0.040533
     59 HO5          1.4010    -0.5330     3.2150 ho         1 FBI       0.428000
     60 C7          -0.3780    -1.3340     0.7230 c3         1 FBI      -0.021100
     61 C91         -3.1480    -1.2150    -0.4950 c3         1 FBI      -0.119000
     62 C1          -1.8150     1.6000     7.6360 c          1 FBI       0.728000
@<TRIPOS>BOND
     1     1     5 2   
     2     2     5 2   
     3     3     4 1   
     4     3     5 1   
     5     3    11 1   
     6     4    31 1   
     7     4    32 1   
     8     4    33 1   
     9     5     6 1   
    10     6    34 1   
    11     6    35 1   
    12     6    36 1   
    13     7     8 ar  
    14     7    12 ar  
    15     7    15 1   
    16     8     9 ar  
    17     8    60 1   
    18     9    10 ar  
    19     9    61 1   
    20    10    11 ar  
    21    11    12 ar  
    22    13    14 ar  
    23    13    18 ar  
    24    13    37 1   
    25    14    15 ar  
    26    14    38 1   
    27    15    16 ar  
    28    16    17 ar  
    29    16    39 1   
    30    17    18 ar  
    31    17    40 1   
    32    18    19 1   
    33    20    62 1   
    34    21    62 1   
    35    22    24 1   
    36    22    41 1   
    37    23    24 1   
    38    23    42 1   
    39    23    43 1   
    40    23    62 1   
    41    24    25 1   
    42    24    44 1   
    43    25    26 1   
    44    25    45 1   
    45    25    46 1   
    46    26    27 1   
    47    26    30 1   
    48    26    47 1   
    49    27    48 1   
    50    27    49 1   
    51    27    60 1   
    52    28    53 1   
    53    28    54 1   
    54    28    55 1   
    55    28    61 1   
    56    29    56 1   
    57    29    57 1   
    58    29    58 1   
    59    29    61 1   
    60    30    59 1   
    61    50    60 1   
    62    51    60 1   
    63    52    61 1   
@<TRIPOS>SUBSTRUCTURE
     1 FBI         1 TEMP              0 ****  ****    0 ROOT
