@<TRIPOS>MOLECULE
FBJ
   18    18     1     0     0
SMALL
No Charge or Current Charge


@<TRIPOS>ATOM
      1 C02         -0.9590    -0.3670     0.2420 c          1 FBJ       0.619300
      2 C05          0.5300    -0.2020     0.0790 ce         1 FBJ      -0.226400
      3 C06          1.4190    -1.1970    -0.0330 c2         1 FBJ      -0.129200
      4 C07          2.7650    -0.5380    -0.2340 c5         1 FBJ      -0.065200
      5 C08          2.5470     0.9350     0.2650 c5         1 FBJ      -0.078400
      6 C09          1.0380     1.2250    -0.0380 c5         1 FBJ      -0.038200
      7 N03         -1.7430     0.7250    -0.1220 ns         1 FBJ      -0.377400
      8 O01         -1.4560    -1.4320     0.5870 o          1 FBJ      -0.568100
      9 O04         -3.1570     0.7720     0.1920 oh         1 FBJ      -0.434100
     10 H1           1.2020    -2.2680     0.0020 ha         1 FBJ       0.208000
     11 H2           3.5580    -1.0470     0.3260 hc         1 FBJ       0.060700
     12 H3           2.7360     1.0000     1.3440 hc         1 FBJ       0.048200
     13 H4           0.8900     1.6290    -1.0470 hc         1 FBJ       0.048200
     14 H5           0.5990     1.9150     0.6930 hc         1 FBJ       0.048200
     15 H6          -1.2920     1.6190    -0.3000 hn         1 FBJ       0.327500
     16 H7          -3.5770     1.0150    -0.6670 ho         1 FBJ       0.448000
     17 H8           3.0470    -0.5620    -1.2930 hc         1 FBJ       0.060700
     18 H9           3.2210     1.6500    -0.2210 hc         1 FBJ       0.048200
@<TRIPOS>BOND
     1     1     2 1   
     2     1     7 1   
     3     1     8 2   
     4     2     3 2   
     5     2     6 1   
     6     3     4 1   
     7     3    10 1   
     8     4     5 1   
     9     4    11 1   
    10     4    17 1   
    11     5     6 1   
    12     5    12 1   
    13     5    18 1   
    14     6    13 1   
    15     6    14 1   
    16     7     9 1   
    17     7    15 1   
    18     9    16 1   
@<TRIPOS>SUBSTRUCTURE
     1 FBJ         1 TEMP              0 ****  ****    0 ROOT
