@<TRIPOS>MOLECULE
FBJ
   18    18     1     0     0
SMALL
bcc


@<TRIPOS>ATOM
      1 C02         -1.0110    -0.3670     0.0490 c          1 FBJ       0.686300
      2 C05          0.4440    -0.1020     0.0070 ce         1 FBJ      -0.226400
      3 C06          1.3480    -1.0840    -0.0170 c2         1 FBJ      -0.079200
      4 C07          2.7460    -0.5650    -0.1130 c5         1 FBJ      -0.065200
      5 C08          2.5880     0.9410     0.1590 c5         1 FBJ      -0.078400
      6 C09          1.1010     1.2550    -0.0850 c5         1 FBJ      -0.038200
      7 N03         -1.7640     0.7600     0.0170 ns         1 FBJ      -0.444400
      8 O01         -1.4910    -1.4880     0.0730 o          1 FBJ      -0.568100
      9 O04         -3.1030     0.6670     0.2550 oh         1 FBJ      -0.395100
     10 H1           1.1070    -2.1390    -0.0060 ha         1 FBJ       0.158000
     11 H2           3.4200    -1.0590     0.5920 hc         1 FBJ       0.060700
     12 H3           2.8430     1.1550     1.1970 hc         1 FBJ       0.048200
     13 H4           0.9340     1.6960    -1.0720 hc         1 FBJ       0.048200
     14 H5           0.7190     1.9740     0.6440 hc         1 FBJ       0.048200
     15 H6          -1.3720     1.6600     0.2560 hn         1 FBJ       0.327500
     16 H7          -3.5310     0.7850    -0.6020 ho         1 FBJ       0.409000
     17 H8           3.1500    -0.7630    -1.1120 hc         1 FBJ       0.060700
     18 H9           3.2430     1.5460    -0.4670 hc         1 FBJ       0.048200
@<TRIPOS>BOND
     1     1     2 1   
     2     1     7 1   
     3     1     8 2   
     4     2     3 2   
     5     2     6 1   
     6     3     4 1   
     7     3    10 1   
     8     4     5 1   
     9     4    11 1   
    10     4    17 1   
    11     5     6 1   
    12     5    12 1   
    13     5    18 1   
    14     6    13 1   
    15     6    14 1   
    16     7     9 1   
    17     7    15 1   
    18     9    16 1   
@<TRIPOS>SUBSTRUCTURE
     1 FBJ         1 TEMP              0 ****  ****    0 ROOT
