@<TRIPOS>MOLECULE
FBK
   34    36     1     0     0
SMALL
No Charge or Current Charge


@<TRIPOS>ATOM
      1 O1           2.7960     2.7450     1.1260 o          1 FBK      -0.718000
      2 O2          -3.2810     3.2410    -1.1730 oh         1 FBK      -0.521100
      3 C1           3.4730     0.6400     0.2910 ca         1 FBK      -0.147600
      4 C2           4.5310    -0.1820    -0.1560 ca         1 FBK      -0.066000
      5 C3           4.2840    -1.5070    -0.5460 ca         1 FBK      -0.158000
      6 C4           2.9860    -2.0330    -0.4940 ca         1 FBK      -0.116000
      7 C5           1.8920    -1.2450    -0.0480 cp         1 FBK      -0.205500
      8 C6           0.4940    -1.8040     0.0110 cp         1 FBK       0.456500
      9 N           -0.5170    -0.9060    -0.0350 nb         1 FBK      -0.670000
     10 C            3.7330     2.0760     0.7150 c          1 FBK       0.713600
     11 O            4.8730     2.5130     0.6320 o          1 FBK      -0.718000
     12 C10         -1.8010    -1.3300     0.0160 cp         1 FBK       0.411500
     13 C11         -2.8680    -0.2640    -0.0470 cp         1 FBK      -0.102500
     14 C12         -4.1870    -0.4950     0.4310 ca         1 FBK      -0.142000
     15 C13         -5.1750     0.5020     0.3680 ca         1 FBK      -0.088000
     16 C14         -4.8720     1.7610    -0.1730 ca         1 FBK      -0.210000
     17 C15         -3.5790     2.0200    -0.6480 ca         1 FBK       0.132100
     18 C16         -2.5910     1.0250    -0.5840 ca         1 FBK      -0.094000
     19 C17          2.1670     0.0980     0.3370 ca         1 FBK      -0.035000
     20 C7           0.2370    -3.1930     0.1210 ca         1 FBK      -0.169000
     21 C8          -1.0830    -3.6590     0.1670 ca         1 FBK      -0.084000
     22 C9          -2.1120    -2.7110     0.1090 ca         1 FBK      -0.180000
     23 H1          -4.0870     3.7980    -1.1330 ho         1 FBK       0.454000
     24 H2           5.5470     0.2030    -0.2050 ha         1 FBK       0.128000
     25 H3           5.1060    -2.1290    -0.8950 ha         1 FBK       0.087000
     26 H4           2.8310    -3.0570    -0.8210 ha         1 FBK       0.081000
     27 H6          -4.4540    -1.4520     0.8730 ha         1 FBK       0.108000
     28 H7          -6.1760     0.2990     0.7430 ha         1 FBK       0.100000
     29 H8          -5.6430     2.5260    -0.2180 ha         1 FBK       0.103000
     30 H9          -1.5990     1.2570    -0.9650 ha         1 FBK       0.168000
     31 H10          1.3500     0.7270     0.6860 ha         1 FBK       0.148000
     32 H11          1.0550    -3.9030     0.1810 ha         1 FBK       0.121000
     33 H12         -1.3020    -4.7220     0.2450 ha         1 FBK       0.103000
     34 H13         -3.1430    -3.0470     0.1260 ha         1 FBK       0.111000
@<TRIPOS>BOND
     1     1    10 1   
     2     2    17 1   
     3     2    23 1   
     4     3     4 ar  
     5     3    10 1   
     6     3    19 ar  
     7     4     5 ar  
     8     4    24 1   
     9     5     6 ar  
    10     5    25 1   
    11     6     7 ar  
    12     6    26 1   
    13     7     8 1   
    14     7    19 ar  
    15     8     9 ar  
    16     8    20 ar  
    17     9    12 ar  
    18    10    11 1   
    19    12    13 1   
    20    12    22 ar  
    21    13    14 ar  
    22    13    18 ar  
    23    14    15 ar  
    24    14    27 1   
    25    15    16 ar  
    26    15    28 1   
    27    16    17 ar  
    28    16    29 1   
    29    17    18 ar  
    30    18    30 1   
    31    19    31 1   
    32    20    21 ar  
    33    20    32 1   
    34    21    22 ar  
    35    21    33 1   
    36    22    34 1   
@<TRIPOS>SUBSTRUCTURE
     1 FBK         1 TEMP              0 ****  ****    0 ROOT
