@<TRIPOS>MOLECULE
FBK
   34    36     1     0     0
SMALL
abcg2


@<TRIPOS>ATOM
      1 O1           2.5380     2.7840     0.8390 o          1 FBK      -0.718000
      2 O2          -3.0590     3.2080    -0.9920 oh         1 FBK      -0.521100
      3 C1           3.3430     0.6500     0.2180 ca         1 FBK      -0.147600
      4 C2           4.4200    -0.1630    -0.1250 ca         1 FBK      -0.066000
      5 C3           4.2180    -1.4990    -0.4400 ca         1 FBK      -0.158000
      6 C4           2.9420    -2.0420    -0.4060 ca         1 FBK      -0.116000
      7 C5           1.8480    -1.2490    -0.0560 cp         1 FBK      -0.205500
      8 C6           0.4760    -1.8030    -0.0040 cp         1 FBK       0.456500
      9 N           -0.5220    -0.9270    -0.0400 nb         1 FBK      -0.670000
     10 C            3.5550     2.1220     0.5570 c          1 FBK       0.713600
     11 O            4.7290     2.5370     0.5190 o          1 FBK      -0.718000
     12 C10         -1.7850    -1.3350     0.0090 cp         1 FBK       0.411500
     13 C11         -2.8260    -0.2810    -0.0320 cp         1 FBK      -0.102500
     14 C12         -4.1350    -0.5350     0.3830 ca         1 FBK      -0.142000
     15 C13         -5.0840     0.4740     0.3310 ca         1 FBK      -0.088000
     16 C14         -4.7550     1.7400    -0.1290 ca         1 FBK      -0.210000
     17 C15         -3.4500     2.0000    -0.5370 ca         1 FBK       0.132100
     18 C16         -2.4920     0.9930    -0.4840 ca         1 FBK      -0.094000
     19 C17          2.0690     0.0960     0.2440 ca         1 FBK      -0.035000
     20 C7           0.2330    -3.1740     0.0970 ca         1 FBK      -0.169000
     21 C8          -1.0800    -3.6120     0.1280 ca         1 FBK      -0.084000
     22 C9          -2.1110    -2.6890     0.0770 ca         1 FBK      -0.180000
     23 H1          -3.8000     3.8240    -0.9860 ho         1 FBK       0.454000
     24 H2           5.4180     0.2530    -0.1480 ha         1 FBK       0.128000
     25 H3           5.0570    -2.1240    -0.7170 ha         1 FBK       0.087000
     26 H4           2.8110    -3.0830    -0.6710 ha         1 FBK       0.081000
     27 H6          -4.4210    -1.5060     0.7630 ha         1 FBK       0.108000
     28 H7          -6.0960     0.2740     0.6580 ha         1 FBK       0.100000
     29 H8          -5.5090     2.5180    -0.1660 ha         1 FBK       0.103000
     30 H9          -1.4780     1.2030    -0.7990 ha         1 FBK       0.168000
     31 H10          1.2270     0.7210     0.5080 ha         1 FBK       0.148000
     32 H11          1.0400    -3.8890     0.1600 ha         1 FBK       0.121000
     33 H12         -1.2980    -4.6690     0.1940 ha         1 FBK       0.103000
     34 H13         -3.1380    -3.0240     0.0840 ha         1 FBK       0.111000
@<TRIPOS>BOND
     1     1    10 1   
     2     2    17 1   
     3     2    23 1   
     4     3     4 ar  
     5     3    10 1   
     6     3    19 ar  
     7     4     5 ar  
     8     4    24 1   
     9     5     6 ar  
    10     5    25 1   
    11     6     7 ar  
    12     6    26 1   
    13     7     8 1   
    14     7    19 ar  
    15     8     9 ar  
    16     8    20 ar  
    17     9    12 ar  
    18    10    11 1   
    19    12    13 1   
    20    12    22 ar  
    21    13    14 ar  
    22    13    18 ar  
    23    14    15 ar  
    24    14    27 1   
    25    15    16 ar  
    26    15    28 1   
    27    16    17 ar  
    28    16    29 1   
    29    17    18 ar  
    30    18    30 1   
    31    19    31 1   
    32    20    21 ar  
    33    20    32 1   
    34    21    22 ar  
    35    21    33 1   
    36    22    34 1   
@<TRIPOS>SUBSTRUCTURE
     1 FBK         1 TEMP              0 ****  ****    0 ROOT
