@<TRIPOS>MOLECULE
FBL
   53    55     1     0     0
SMALL
No Charge or Current Charge


@<TRIPOS>ATOM
      1 C22          0.3530     0.2990     5.9250 c3         1 FBL       0.160600
      2 N1          -2.4590    -1.0540    -1.2420 nb         1 FBL      -0.258000
      3 C2          -3.2360    -1.4380    -2.2710 ca         1 FBL       0.173900
      4 C6          -1.2590    -0.5350    -1.5600 ca         1 FBL       0.425900
      5 C4          -1.5390    -0.7540    -3.8100 ca         1 FBL       0.426900
      6 C3          -2.8030    -1.3050    -3.5980 ca         1 FBL      -0.332000
      7 N5          -0.7530    -0.3810    -2.7910 nb         1 FBL      -0.321000
      8 C11          2.3120     1.1640    -6.9280 ca         1 FBL      -0.130000
      9 C10          1.6650     0.0830    -7.5490 ca         1 FBL      -0.063000
     10 C9           0.5460    -0.5110    -6.9380 ca         1 FBL       0.049000
     11 C8           0.0700    -0.0340    -5.6900 ca         1 FBL       0.340000
     12 C12          1.8340     1.6520    -5.7030 ca         1 FBL       0.151000
     13 C17         -1.8130     0.3650     2.8870 ca         1 FBL      -0.145500
     14 C16         -1.7470     0.2300     1.4880 ca         1 FBL      -0.112500
     15 C13          0.7180     1.0620    -5.0900 ca         1 FBL      -0.134000
     16 C15         -0.5160    -0.0300     0.8510 ca         1 FBL       0.277000
     17 C18         -0.6520     0.2520     3.6690 ca         1 FBL       0.121100
     18 C19          0.5860     0.0080     3.0380 ca         1 FBL      -0.145500
     19 C20          0.6470    -0.1260     1.6370 ca         1 FBL      -0.112500
     20 O21         -0.7780     0.3950     5.0350 os         1 FBL      -0.328100
     21 N7          -1.0570    -0.6370    -5.1030 nu         1 FBL      -0.934900
     22 Cl30         2.6310     3.0190    -4.9360 cl         1 FBL      -0.197000
     23 C23         -0.1330     0.5120     7.3830 c3         1 FBL       0.172300
     24 C24          1.0350     0.5780     8.4010 c3         1 FBL       0.119800
     25 N25          0.6050     0.3400     9.8130 n3         1 FBL      -0.737600
     26 C26          1.7550     0.0680    10.7060 c3         1 FBL       0.151100
     27 C27         -0.2630     1.4170    10.3550 c3         1 FBL       0.151100
     28 O28         -0.9850    -0.5540     7.8260 oh         1 FBL      -0.651000
     29 H221         1.0950     1.0710     5.6810 h1         1 FBL       0.036700
     30 H222         0.8350    -0.6840     5.8400 h1         1 FBL       0.036700
     31 H2          -4.2110    -1.8580    -2.0270 h4         1 FBL       0.023100
     32 H3          -3.4340    -1.6200    -4.4240 ha         1 FBL       0.135000
     33 H11          3.1770     1.6270    -7.3980 ha         1 FBL       0.137000
     34 H10          2.0270    -0.2930    -8.5030 ha         1 FBL       0.133000
     35 H17         -2.7670     0.5650     3.3670 ha         1 FBL       0.123000
     36 H16         -2.6550     0.3470     0.9060 ha         1 FBL       0.130500
     37 H13          0.3540     1.4770    -4.1580 ha         1 FBL       0.169000
     38 H19          1.5050    -0.0800     3.6100 ha         1 FBL       0.123000
     39 H20          1.6060    -0.3150     1.1620 ha         1 FBL       0.130500
     40 H7          -1.5830    -1.2080    -5.7640 hn         1 FBL       0.512000
     41 H23         -0.6780     1.4650     7.4300 h1         1 FBL       0.045700
     42 H241         1.5380     1.5510     8.3080 h1         1 FBL       0.043200
     43 H242         1.7690    -0.1870     8.1130 h1         1 FBL       0.043200
     44 H261         1.4110    -0.1740    11.7210 h1         1 FBL       0.035700
     45 H262         2.3410    -0.7840    10.3380 h1         1 FBL       0.035700
     46 H263         2.4190     0.9410    10.7680 h1         1 FBL       0.035700
     47 H271        -1.1670     1.5470     9.7460 h1         1 FBL       0.035700
     48 H272        -0.5840     1.1770    11.3770 h1         1 FBL       0.035700
     49 H273         0.2730     2.3750    10.3820 h1         1 FBL       0.035700
     50 H28         -0.7270    -0.6290     8.7800 ho         1 FBL       0.469000
     51 N14         -0.4000    -0.1580    -0.5390 nu         1 FBL      -0.922900
     52 Cl29        -0.2460    -1.8640    -7.7570 cl         1 FBL      -0.204000
     53 H14          0.5460    -0.0070    -0.8870 hn         1 FBL       0.507000
@<TRIPOS>BOND
     1     1    20 1   
     2     1    23 1   
     3     1    29 1   
     4     1    30 1   
     5     2     3 ar  
     6     2     4 ar  
     7     3     6 ar  
     8     3    31 1   
     9     4     7 ar  
    10     4    51 1   
    11     5     6 ar  
    12     5     7 ar  
    13     5    21 1   
    14     6    32 1   
    15     8     9 ar  
    16     8    12 ar  
    17     8    33 1   
    18     9    10 ar  
    19     9    34 1   
    20    10    11 ar  
    21    10    52 1   
    22    11    15 ar  
    23    11    21 1   
    24    12    15 ar  
    25    12    22 1   
    26    13    14 ar  
    27    13    17 ar  
    28    13    35 1   
    29    14    16 ar  
    30    14    36 1   
    31    15    37 1   
    32    16    19 ar  
    33    16    51 1   
    34    17    18 ar  
    35    17    20 1   
    36    18    19 ar  
    37    18    38 1   
    38    19    39 1   
    39    21    40 1   
    40    23    24 1   
    41    23    28 1   
    42    23    41 1   
    43    24    25 1   
    44    24    42 1   
    45    24    43 1   
    46    25    26 1   
    47    25    27 1   
    48    26    44 1   
    49    26    45 1   
    50    26    46 1   
    51    27    47 1   
    52    27    48 1   
    53    27    49 1   
    54    28    50 1   
    55    51    53 1   
@<TRIPOS>SUBSTRUCTURE
     1 FBL         1 TEMP              0 ****  ****    0 ROOT
