@<TRIPOS>MOLECULE
FBL
   53    55     1     0     0
SMALL
bcc


@<TRIPOS>ATOM
      1 C22          0.2110     0.4290     5.8440 c3         1 FBL       0.137400
      2 N1          -2.5670    -0.8600    -1.2190 nb         1 FBL      -0.784000
      3 C2          -3.3090    -1.1930    -2.2780 ca         1 FBL       0.502200
      4 C6          -1.3540    -0.4020    -1.4930 ca         1 FBL       0.951900
      5 C4          -1.5730    -0.5900    -3.7480 ca         1 FBL       0.755200
      6 C3          -2.8810    -1.0850    -3.5740 ca         1 FBL      -0.480600
      7 N5          -0.8260    -0.2540    -2.7160 nb         1 FBL      -0.847000
      8 C11          2.5820     0.7920    -6.6260 ca         1 FBL      -0.148000
      9 C10          1.5500     0.3460    -7.4370 ca         1 FBL      -0.081000
     10 C9           0.3510    -0.0640    -6.8880 ca         1 FBL      -0.042600
     11 C8           0.1280    -0.0440    -5.5000 ca         1 FBL       0.201600
     12 C12          2.3680     0.8120    -5.2600 ca         1 FBL       0.059400
     13 C17         -1.8620    -0.3630     2.9660 ca         1 FBL      -0.163500
     14 C16         -1.8240    -0.4140     1.5830 ca         1 FBL      -0.130500
     15 C13          1.1740     0.4080    -4.6900 ca         1 FBL      -0.152000
     16 C15         -0.6720    -0.0240     0.8950 ca         1 FBL       0.138600
     17 C18         -0.7680     0.0750     3.7090 ca         1 FBL       0.121100
     18 C19          0.3820     0.4640     3.0290 ca         1 FBL      -0.163500
     19 C20          0.4200     0.4130     1.6440 ca         1 FBL      -0.130500
     20 O21         -0.9110     0.0940     5.0520 os         1 FBL      -0.304900
     21 N7          -1.0970    -0.4680    -5.0210 nu         1 FBL      -0.741300
     22 CL30         3.6330     1.3620    -4.2120 cl         1 FBL      -0.105400
     23 C23         -0.1840     0.3260     7.2990 c3         1 FBL       0.149100
     24 C24          0.9660     0.8180     8.1820 c3         1 FBL       0.119800
     25 N25          0.7300     0.4300     9.5610 n3         1 FBL      -0.737600
     26 C26          1.9530     0.3540    10.3340 c3         1 FBL       0.151100
     27 C27         -0.2490     1.2740    10.2190 c3         1 FBL       0.151100
     28 O28         -0.4890    -1.0080     7.6210 oh         1 FBL      -0.588800
     29 H221         0.5470     1.4520     5.6340 h1         1 FBL       0.036700
     30 H222         1.0480    -0.2490     5.6360 h1         1 FBL       0.036700
     31 H2          -4.3030    -1.5680    -2.0630 h4         1 FBL       0.023100
     32 H3          -3.5090    -1.3640    -4.4080 ha         1 FBL       0.153000
     33 H11          3.5180     1.1140    -7.0580 ha         1 FBL       0.155000
     34 H10          1.6850     0.3190    -8.5090 ha         1 FBL       0.151000
     35 H17         -2.7630    -0.6740     3.4810 ha         1 FBL       0.141000
     36 H16         -2.6900    -0.7620     1.0450 ha         1 FBL       0.148500
     37 H13          1.0420     0.4360    -3.6210 ha         1 FBL       0.187000
     38 H19          1.2630     0.8130     3.5500 ha         1 FBL       0.141000
     39 H20          1.3270     0.7250     1.1400 ha         1 FBL       0.148500
     40 H7          -1.7600    -0.7430    -5.7310 hn         1 FBL       0.456800
     41 H23         -1.0600     0.9750     7.4560 h1         1 FBL       0.045700
     42 H241         1.1050     1.9020     8.0570 h1         1 FBL       0.043200
     43 H242         1.8920     0.3370     7.8510 h1         1 FBL       0.043200
     44 H261         1.7370    -0.0350    11.3290 h1         1 FBL       0.035700
     45 H262         2.6600    -0.3230     9.8550 h1         1 FBL       0.035700
     46 H263         2.4460     1.3290    10.4560 h1         1 FBL       0.035700
     47 H271        -1.1840     1.2980     9.6610 h1         1 FBL       0.035700
     48 H272        -0.4700     0.8760    11.2100 h1         1 FBL       0.035700
     49 H273         0.0990     2.3100    10.3390 h1         1 FBL       0.035700
     50 H28         -0.2600    -1.0870     8.5620 ho         1 FBL       0.430000
     51 N14         -0.5170    -0.0300    -0.4920 nu         1 FBL      -0.729300
     52 CL29        -0.8990    -0.6140    -7.9580 cl         1 FBL      -0.112400
     53 H14          0.3750     0.3040    -0.8230 hn         1 FBL       0.451800
@<TRIPOS>BOND
     1     1    20 1   
     2     1    23 1   
     3     1    29 1   
     4     1    30 1   
     5     2     3 ar  
     6     2     4 ar  
     7     3     6 ar  
     8     3    31 1   
     9     4     7 ar  
    10     4    51 1   
    11     5     6 ar  
    12     5     7 ar  
    13     5    21 1   
    14     6    32 1   
    15     8     9 ar  
    16     8    12 ar  
    17     8    33 1   
    18     9    10 ar  
    19     9    34 1   
    20    10    11 ar  
    21    10    52 1   
    22    11    15 ar  
    23    11    21 1   
    24    12    15 ar  
    25    12    22 1   
    26    13    14 ar  
    27    13    17 ar  
    28    13    35 1   
    29    14    16 ar  
    30    14    36 1   
    31    15    37 1   
    32    16    19 ar  
    33    16    51 1   
    34    17    18 ar  
    35    17    20 1   
    36    18    19 ar  
    37    18    38 1   
    38    19    39 1   
    39    21    40 1   
    40    23    24 1   
    41    23    28 1   
    42    23    41 1   
    43    24    25 1   
    44    24    42 1   
    45    24    43 1   
    46    25    26 1   
    47    25    27 1   
    48    26    44 1   
    49    26    45 1   
    50    26    46 1   
    51    27    47 1   
    52    27    48 1   
    53    27    49 1   
    54    28    50 1   
    55    51    53 1   
@<TRIPOS>SUBSTRUCTURE
     1 FBL         1 TEMP              0 ****  ****    0 ROOT
