@<TRIPOS>MOLECULE
FBM
   21    21     1     0     0
SMALL
No Charge or Current Charge


@<TRIPOS>ATOM
      1 C10          0.6500     1.2790     0.0940 c6         1 FBM      -0.032200
      2 C02         -1.3690    -0.3860     0.2250 c          1 FBM       0.611300
      3 C05          0.1220    -0.1710     0.1430 ce         1 FBM      -0.210400
      4 C06          0.9740    -1.2250     0.0240 c2         1 FBM      -0.129200
      5 C07          2.4900    -1.0950    -0.0760 c6         1 FBM      -0.056200
      6 C08          2.9420     0.3360    -0.4450 c6         1 FBM      -0.074400
      7 C09          2.1650     1.3750     0.3890 c6         1 FBM      -0.073400
      8 N03         -2.1550     0.6980    -0.1520 ns         1 FBM      -0.390400
      9 O01         -1.8620    -1.4690     0.5150 o          1 FBM      -0.581100
     10 O04         -3.5840     0.7080     0.0890 oh         1 FBM      -0.426100
     11 H1           0.4500     1.7030    -0.9000 hc         1 FBM       0.043700
     12 H2           0.1110     1.9070     0.8180 hc         1 FBM       0.043700
     13 H4           0.5930    -2.2490     0.0210 ha         1 FBM       0.199000
     14 H6           2.9320    -1.3790     0.8890 hc         1 FBM       0.057700
     15 H7           2.8790    -1.8100    -0.8140 hc         1 FBM       0.057700
     16 H9           4.0230     0.4430    -0.2780 hc         1 FBM       0.044700
     17 H8           2.7690     0.5170    -1.5150 hc         1 FBM       0.044700
     18 H11          2.5270     2.3880     0.1670 hc         1 FBM       0.044700
     19 H10          2.3480     1.2030     1.4590 hc         1 FBM       0.044700
     20 H12         -1.7140     1.6070    -0.2820 hn         1 FBM       0.336500
     21 H13         -3.9650     0.9640    -0.7850 ho         1 FBM       0.444000
@<TRIPOS>BOND
     1     1     3 1   
     2     1     7 1   
     3     1    11 1   
     4     1    12 1   
     5     2     3 1   
     6     2     8 1   
     7     2     9 2   
     8     3     4 2   
     9     4     5 1   
    10     4    13 1   
    11     5     6 1   
    12     5    14 1   
    13     5    15 1   
    14     6     7 1   
    15     6    16 1   
    16     6    17 1   
    17     7    18 1   
    18     7    19 1   
    19     8    10 1   
    20     8    20 1   
    21    10    21 1   
@<TRIPOS>SUBSTRUCTURE
     1 FBM         1 TEMP              0 ****  ****    0 ROOT
