@<TRIPOS>MOLECULE
FBM
   21    21     1     0     0
SMALL
bcc


@<TRIPOS>ATOM
      1 C10          0.6730     1.3230     0.0680 c6         1 FBM      -0.032200
      2 C02         -1.3400    -0.3380     0.1290 c          1 FBM       0.678300
      3 C05          0.1300    -0.0850     0.0820 ce         1 FBM      -0.210400
      4 C06          0.9340    -1.1520     0.0440 c2         1 FBM      -0.079200
      5 C07          2.4210    -1.0820    -0.0610 c6         1 FBM      -0.056200
      6 C08          2.9150     0.3080    -0.4380 c6         1 FBM      -0.074400
      7 C09          2.1680     1.3630     0.3640 c6         1 FBM      -0.073400
      8 N03         -2.0990     0.7620    -0.0660 ns         1 FBM      -0.457400
      9 O01         -1.8320    -1.4460     0.2840 o          1 FBM      -0.581100
     10 O04         -3.4480     0.6930     0.1060 oh         1 FBM      -0.387100
     11 H1           0.4730     1.7890    -0.9040 hc         1 FBM       0.043700
     12 H2           0.1540     1.9350     0.8110 hc         1 FBM       0.043700
     13 H4           0.4930    -2.1420     0.0840 ha         1 FBM       0.149000
     14 H6           2.8540    -1.3960     0.8960 hc         1 FBM       0.057700
     15 H7           2.7610    -1.8270    -0.7870 hc         1 FBM       0.057700
     16 H9           3.9900     0.3840    -0.2680 hc         1 FBM       0.044700
     17 H8           2.7530     0.4790    -1.5060 hc         1 FBM       0.044700
     18 H11          2.5540     2.3610     0.1480 hc         1 FBM       0.044700
     19 H10          2.3290     1.1880     1.4320 hc         1 FBM       0.044700
     20 H12         -1.7320     1.7020    -0.0640 hn         1 FBM       0.336500
     21 H13         -3.8220     0.5240    -0.7680 ho         1 FBM       0.405000
@<TRIPOS>BOND
     1     1     3 1   
     2     1     7 1   
     3     1    11 1   
     4     1    12 1   
     5     2     3 1   
     6     2     8 1   
     7     2     9 2   
     8     3     4 2   
     9     4     5 1   
    10     4    13 1   
    11     5     6 1   
    12     5    14 1   
    13     5    15 1   
    14     6     7 1   
    15     6    16 1   
    16     6    17 1   
    17     7    18 1   
    18     7    19 1   
    19     8    10 1   
    20     8    20 1   
    21    10    21 1   
@<TRIPOS>SUBSTRUCTURE
     1 FBM         1 TEMP              0 ****  ****    0 ROOT
