@<TRIPOS>MOLECULE
FBN
   58    62     1     0     0
SMALL
No Charge or Current Charge


@<TRIPOS>ATOM
      1 C1          -6.7630     0.2160     0.6420 ca         1 FBN       0.117500
      2 N2          -7.7270    -0.7210     0.7520 nb         1 FBN      -0.229000
      3 C3          -8.9880    -0.2560     0.9190 ca         1 FBN       0.182900
      4 N4          -9.3700     1.0410     0.9860 nb         1 FBN      -0.302000
      5 C5          -8.3880     1.9480     0.8770 ca         1 FBN       0.450900
      6 C6          -7.0430     1.5570     0.6980 ca         1 FBN      -0.097600
      7 N8          -5.9060     2.3440     0.5590 nc         1 FBN      -0.551100
      8 C9          -4.9380     1.4160     0.4240 cd         1 FBN       0.414700
      9 N10         -5.4110     0.0890     0.4600 na         1 FBN      -0.323300
     10 N11         -8.7690     3.2520     0.9410 nv         1 FBN      -1.060900
     11 C15         -4.6270    -1.1410     0.3410 c5         1 FBN       0.325300
     12 O16         -3.2180    -0.7910     0.3050 os         1 FBN      -0.427000
     13 C17         -2.6420    -1.2670    -0.9340 c5         1 FBN       0.142300
     14 C18         -3.8500    -1.3480    -1.9110 c5         1 FBN       0.094300
     15 C19         -4.9040    -1.9800    -0.9600 c5         1 FBN       0.106300
     16 O21         -3.6010    -2.1840    -3.0550 oh         1 FBN      -0.710000
     17 O23         -4.6480    -3.3880    -0.8100 oh         1 FBN      -0.700000
     18 C27         -1.4980    -0.3370    -1.3920 c3         1 FBN       0.067600
     19 N29         -0.3680    -0.2450    -0.4560 na         1 FBN       0.129800
     20 C32          0.5440    -1.2250    -0.1520 cc         1 FBN      -0.194000
     21 C33          1.3710    -0.6170     0.7490 cd         1 FBN       0.164300
     22 N34          0.9520     0.6810     0.9530 nd         1 FBN      -0.324000
     23 N35         -0.1060     0.9090     0.2210 nc         1 FBN      -0.196800
     24 C37          2.5820    -1.1950     1.4380 c3         1 FBN       0.088700
     25 N38          3.8390    -0.6970     0.8660 ns         1 FBN      -0.471900
     26 C41          5.0810    -1.2020     1.1670 c          1 FBN       0.637700
     27 C42          6.2780    -0.5710     0.4910 ca         1 FBN      -0.275600
     28 O43          5.2070    -2.1320     1.9540 o          1 FBN      -0.628100
     29 C45          7.5850    -1.0460     0.7660 ca         1 FBN       0.251100
     30 C46          8.7130    -0.4620     0.1380 ca         1 FBN       0.078100
     31 C47          8.5410     0.5980    -0.7670 ca         1 FBN      -0.105000
     32 C48          7.2470     1.0870    -1.0570 ca         1 FBN      -0.208200
     33 C49          6.1260     0.5000    -0.4260 ca         1 FBN       0.002000
     34 O52          7.7640    -2.0790     1.6460 oh         1 FBN      -0.513100
     35 O53          9.9840    -0.9190     0.4010 oh         1 FBN      -0.502100
     36 N54          7.0640     2.2210    -2.0260 no         1 FBN       0.704200
     37 O55          8.0710     2.7070    -2.5560 o          1 FBN      -0.407000
     38 O56          5.9130     2.6180    -2.2530 o          1 FBN      -0.407000
     39 H3          -9.7760    -1.0030     1.0080 h5         1 FBN       0.047100
     40 H9          -3.8840     1.6330     0.2940 h5         1 FBN       0.090800
     41 HN11        -9.7460     3.4720     0.7680 hn         1 FBN       0.507500
     42 HN1A        -8.0860     3.9470     0.6460 hn         1 FBN       0.507500
     43 H15         -4.8550    -1.7360     1.2360 h2         1 FBN       0.127700
     44 H17         -2.2230    -2.2680    -0.7560 h1         1 FBN       0.089700
     45 H18         -4.1590    -0.3390    -2.2230 h1         1 FBN       0.060700
     46 H19         -5.9260    -1.8110    -1.3280 h1         1 FBN       0.091700
     47 HO21        -4.1330    -1.8290    -3.8090 ho         1 FBN       0.523000
     48 HO23        -4.2110    -3.6430    -1.6610 ho         1 FBN       0.524000
     49 H27         -1.1130    -0.7010    -2.3520 h1         1 FBN       0.083200
     50 H27A        -1.9020     0.6690    -1.5590 h1         1 FBN       0.083200
     51 H32          0.5360    -2.2190    -0.5780 h4         1 FBN       0.168000
     52 H37          2.5480    -0.9380     2.5050 h1         1 FBN       0.074700
     53 H37A         2.5550    -2.2900     1.3520 h1         1 FBN       0.074700
     54 HN38         3.7950     0.0780     0.2180 hn         1 FBN       0.322500
     55 H47          9.4140     1.0400    -1.2450 ha         1 FBN       0.153000
     56 H49          5.1370     0.8860    -0.6600 ha         1 FBN       0.141000
     57 HO52         6.8520    -2.3260     1.9550 ho         1 FBN       0.537000
     58 HO53        10.6300    -0.3990    -0.1230 ho         1 FBN       0.470000
@<TRIPOS>BOND
     1     1     2 ar  
     2     1     6 ar  
     3     1     9 1   
     4     2     3 ar  
     5     3     4 ar  
     6     3    39 1   
     7     4     5 ar  
     8     5     6 ar  
     9     5    10 1   
    10     6     7 1   
    11     7     8 2   
    12     8     9 1   
    13     8    40 1   
    14     9    11 1   
    15    10    41 1   
    16    10    42 1   
    17    11    12 1   
    18    11    15 1   
    19    11    43 1   
    20    12    13 1   
    21    13    14 1   
    22    13    18 1   
    23    13    44 1   
    24    14    15 1   
    25    14    16 1   
    26    14    45 1   
    27    15    17 1   
    28    15    46 1   
    29    16    47 1   
    30    17    48 1   
    31    18    19 1   
    32    18    49 1   
    33    18    50 1   
    34    19    20 1   
    35    19    23 1   
    36    20    21 2   
    37    20    51 1   
    38    21    22 1   
    39    21    24 1   
    40    22    23 2   
    41    24    25 1   
    42    24    52 1   
    43    24    53 1   
    44    25    26 1   
    45    25    54 1   
    46    26    27 1   
    47    26    28 2   
    48    27    29 ar  
    49    27    33 ar  
    50    29    30 ar  
    51    29    34 1   
    52    30    31 ar  
    53    30    35 1   
    54    31    32 ar  
    55    31    55 1   
    56    32    33 ar  
    57    32    36 1   
    58    33    56 1   
    59    34    57 1   
    60    35    58 1   
    61    36    37 1   
    62    36    38 1   
@<TRIPOS>SUBSTRUCTURE
     1 FBN         1 TEMP              0 ****  ****    0 ROOT
