@<TRIPOS>MOLECULE
FBN
   58    62     1     0     0
SMALL
abcg2


@<TRIPOS>ATOM
      1 C1          -5.8500     0.4650     0.8980 ca         1 FBN       0.117500
      2 N2          -7.0250    -0.1490     1.0290 nb         1 FBN      -0.229000
      3 C3          -7.9680     0.6840     1.4340 ca         1 FBN       0.182900
      4 N4          -7.8640     1.9830     1.7000 nb         1 FBN      -0.302000
      5 C5          -6.6770     2.5850     1.5680 ca         1 FBN       0.450900
      6 C6          -5.5850     1.8020     1.1470 ca         1 FBN      -0.097600
      7 N8          -4.2630     2.0850     0.9310 nc         1 FBN      -0.551100
      8 C9          -3.7440     0.9500     0.5610 cd         1 FBN       0.414700
      9 N10         -4.6570    -0.0700     0.5050 na         1 FBN      -0.323300
     10 N11         -6.5680     3.8840     1.8490 nv         1 FBN      -1.060900
     11 C15         -4.4180    -1.4820     0.2110 c5         1 FBN       0.325300
     12 O16         -3.0650    -1.6650    -0.0700 os         1 FBN      -0.427000
     13 C17         -2.8460    -1.8530    -1.4630 c5         1 FBN       0.142300
     14 C18         -4.1890    -1.5660    -2.1360 c5         1 FBN       0.094300
     15 C19         -5.1810    -1.9390    -1.0290 c5         1 FBN       0.106300
     16 O21         -4.3180    -2.3280    -3.3010 oh         1 FBN      -0.710000
     17 O23         -5.3300    -3.3280    -0.9320 oh         1 FBN      -0.700000
     18 C27         -1.7420    -0.9340    -1.9570 c3         1 FBN       0.067600
     19 N29         -0.5390    -1.0620    -1.1670 na         1 FBN       0.129800
     20 C32          0.3990    -2.0230    -1.2070 cc         1 FBN      -0.194000
     21 C33          1.2490    -1.7040    -0.1800 cd         1 FBN       0.164300
     22 N34          0.7780    -0.5840     0.4130 nd         1 FBN      -0.324000
     23 N35         -0.2970    -0.2100    -0.1850 nc         1 FBN      -0.196800
     24 C37          2.4940    -2.3950     0.2600 c3         1 FBN       0.088700
     25 N38          3.6840    -1.6000     0.0260 ns         1 FBN      -0.471900
     26 C41          4.2490    -0.8330     0.9560 c          1 FBN       0.637700
     27 C42          5.4530    -0.0390     0.5910 ca         1 FBN      -0.275600
     28 O43          3.8110    -0.7840     2.1150 o          1 FBN      -0.628100
     29 C45          6.0960     0.6720     1.6190 ca         1 FBN       0.251100
     30 C46          7.2600     1.4230     1.3270 ca         1 FBN       0.078100
     31 C47          7.7470     1.4680     0.0440 ca         1 FBN      -0.105000
     32 C48          7.0830     0.7660    -0.9650 ca         1 FBN      -0.208200
     33 C49          5.9550     0.0230    -0.7080 ca         1 FBN       0.002000
     34 O52          5.6790     0.6800     2.8680 oh         1 FBN      -0.513100
     35 O53          7.8180     2.0590     2.3670 oh         1 FBN      -0.502100
     36 N54          7.6000     0.8240    -2.3130 no         1 FBN       0.704200
     37 O55          8.6050     1.4690    -2.5090 o          1 FBN      -0.407000
     38 O56          7.0060     0.2260    -3.1820 o          1 FBN      -0.407000
     39 H3          -8.9570     0.2590     1.5660 h5         1 FBN       0.047100
     40 H9          -2.6980     0.7990     0.3370 h5         1 FBN       0.090800
     41 HN11        -7.3850     4.4200     2.0840 hn         1 FBN       0.507500
     42 HN1A        -5.7080     4.3780     1.6850 hn         1 FBN       0.507500
     43 H15         -4.6960    -2.0590     1.0960 h2         1 FBN       0.127700
     44 H17         -2.5550    -2.8960    -1.6360 h1         1 FBN       0.089700
     45 H18         -4.2800    -0.4920    -2.3460 h1         1 FBN       0.060700
     46 H19         -6.1450    -1.4290    -1.1400 h1         1 FBN       0.091700
     47 HO21        -4.9800    -1.9190    -3.8680 ho         1 FBN       0.523000
     48 HO23        -5.4010    -3.6810    -1.8270 ho         1 FBN       0.524000
     49 H27         -1.5130    -1.1750    -2.9950 h1         1 FBN       0.083200
     50 H27A        -2.0440     0.1120    -1.9170 h1         1 FBN       0.083200
     51 H32          0.4010    -2.8200    -1.9310 h4         1 FBN       0.168000
     52 H37          2.4410    -2.6420     1.3190 h1         1 FBN       0.074700
     53 H37A         2.6050    -3.3310    -0.2840 h1         1 FBN       0.074700
     54 HN38         4.0510    -1.6150    -0.9100 hn         1 FBN       0.322500
     55 H47          8.6360     2.0450    -0.1750 ha         1 FBN       0.153000
     56 H49          5.4730    -0.4970    -1.5230 ha         1 FBN       0.141000
     57 HO52         4.8510     0.1210     2.8860 ho         1 FBN       0.537000
     58 HO53         8.6140     2.5280     2.0910 ho         1 FBN       0.470000
@<TRIPOS>BOND
     1     1     2 ar  
     2     1     6 ar  
     3     1     9 1   
     4     2     3 ar  
     5     3     4 ar  
     6     3    39 1   
     7     4     5 ar  
     8     5     6 ar  
     9     5    10 1   
    10     6     7 1   
    11     7     8 2   
    12     8     9 1   
    13     8    40 1   
    14     9    11 1   
    15    10    41 1   
    16    10    42 1   
    17    11    12 1   
    18    11    15 1   
    19    11    43 1   
    20    12    13 1   
    21    13    14 1   
    22    13    18 1   
    23    13    44 1   
    24    14    15 1   
    25    14    16 1   
    26    14    45 1   
    27    15    17 1   
    28    15    46 1   
    29    16    47 1   
    30    17    48 1   
    31    18    19 1   
    32    18    49 1   
    33    18    50 1   
    34    19    20 1   
    35    19    23 1   
    36    20    21 2   
    37    20    51 1   
    38    21    22 1   
    39    21    24 1   
    40    22    23 2   
    41    24    25 1   
    42    24    52 1   
    43    24    53 1   
    44    25    26 1   
    45    25    54 1   
    46    26    27 1   
    47    26    28 2   
    48    27    29 ar  
    49    27    33 ar  
    50    29    30 ar  
    51    29    34 1   
    52    30    31 ar  
    53    30    35 1   
    54    31    32 ar  
    55    31    55 1   
    56    32    33 ar  
    57    32    36 1   
    58    33    56 1   
    59    34    57 1   
    60    35    58 1   
    61    36    37 1   
    62    36    38 1   
@<TRIPOS>SUBSTRUCTURE
     1 FBN         1 TEMP              0 ****  ****    0 ROOT
