@<TRIPOS>MOLECULE
FBO
   62    63     1     0     0
SMALL
bcc


@<TRIPOS>ATOM
      1 C1          -6.6000    -4.0590    -1.4640 ca         1 FBO      -0.125000
      2 C2          -7.8500    -4.2290    -0.8820 ca         1 FBO      -0.126000
      3 C3          -8.4070    -3.1950    -0.1410 ca         1 FBO      -0.125000
      4 C4          -7.7170    -2.0000     0.0180 ca         1 FBO      -0.128000
      5 C5          -6.4620    -1.8170    -0.5610 ca         1 FBO      -0.086300
      6 C6          -5.9140    -2.8630    -1.3020 ca         1 FBO      -0.128000
      7 C7          -5.6920    -0.5470    -0.3510 c3         1 FBO      -0.075100
      8 C8          -4.7500    -0.6430     0.8740 c3         1 FBO       0.096500
      9 C9          -4.0110     0.6810     0.9780 c          1 FBO       0.674100
     10 N10         -2.7970     0.7190     0.4060 ns         1 FBO      -0.554900
     11 O11         -4.5130     1.6590     1.5130 o          1 FBO      -0.595100
     12 N12         -5.3990    -0.9140     2.1380 n8         1 FBO      -0.878800
     13 C13          2.5390     0.0880     0.9780 c3         1 FBO       0.122000
     14 C14         -2.0990     1.9650     0.2210 c3         1 FBO       0.037700
     15 C15         -0.7100     1.7170    -0.3660 c3         1 FBO      -0.086400
     16 C16          0.2130     0.9670     0.5860 c3         1 FBO      -0.074400
     17 C17          1.6110     0.7990     0.0070 c3         1 FBO      -0.097400
     18 N18          3.8730    -0.0060     0.4220 ns         1 FBO      -0.571900
     19 C20          4.8720    -0.6120     1.0790 c          1 FBO       0.753100
     20 O21          6.0310    -0.4930     0.4180 os         1 FBO      -0.438900
     21 O22          4.7500    -1.2010     2.1360 o          1 FBO      -0.594000
     22 C23          7.1830    -1.0990     1.0130 c3         1 FBO       0.208700
     23 C24          8.3590    -0.7380     0.1580 ca         1 FBO      -0.101300
     24 C25          8.9120     0.5390     0.2310 ca         1 FBO      -0.103000
     25 C26          9.9890     0.8870    -0.5720 ca         1 FBO      -0.133500
     26 C27         10.5260    -0.0410    -1.4560 ca         1 FBO      -0.116000
     27 C28          9.9810    -1.3150    -1.5350 ca         1 FBO      -0.133500
     28 C29          8.9000    -1.6590    -0.7320 ca         1 FBO      -0.103000
     29 C30         -2.9050     2.8710    -0.7130 c          1 FBO       0.657100
     30 O31         -3.5490     2.4400    -1.6500 o          1 FBO      -0.570100
     31 N32         -2.7580     4.1750    -0.4290 ns         1 FBO      -0.449400
     32 O33         -3.4580     5.1120    -1.1260 oh         1 FBO      -0.378100
     33 H1          -6.1600    -4.8570    -2.0480 ha         1 FBO       0.131500
     34 H2          -8.3880    -5.1600    -1.0080 ha         1 FBO       0.132000
     35 H3          -9.3830    -3.3170     0.3120 ha         1 FBO       0.131500
     36 H4          -8.1650    -1.1950     0.5890 ha         1 FBO       0.128500
     37 H6          -4.9400    -2.7370    -1.7610 ha         1 FBO       0.128500
     38 H7          -5.1010    -0.3140    -1.2400 hc         1 FBO       0.069200
     39 H7A         -6.3800     0.2890    -0.1960 hc         1 FBO       0.069200
     40 H8          -4.0310    -1.4460     0.6890 h1         1 FBO       0.064700
     41 HN10        -2.4800    -0.0850    -0.1130 hn         1 FBO       0.321500
     42 HN12        -6.1160    -0.2200     2.3130 hn         1 FBO       0.355800
     43 HN1A        -5.8710    -1.8090     2.0940 hn         1 FBO       0.355800
     44 H13          2.5600     0.6310     1.9280 h1         1 FBO       0.052700
     45 H13A         2.1530    -0.9120     1.1900 h1         1 FBO       0.052700
     46 H14         -1.9790     2.4540     1.1940 h1         1 FBO       0.078700
     47 H15         -0.8050     1.1750    -1.3130 hc         1 FBO       0.056200
     48 H15A        -0.2640     2.6840    -0.6080 hc         1 FBO       0.056200
     49 H16          0.2730     1.5160     1.5310 hc         1 FBO       0.050700
     50 H16A        -0.2030    -0.0160     0.8280 hc         1 FBO       0.050700
     51 H17          2.0250     1.7830    -0.2370 hc         1 FBO       0.046200
     52 H17A         1.5600     0.2370    -0.9300 hc         1 FBO       0.046200
     53 HN18         4.0850     0.5140    -0.4150 hn         1 FBO       0.327500
     54 H23          7.3180    -0.7310     2.0320 h1         1 FBO       0.056700
     55 H23A         7.0580    -2.1830     1.0600 h1         1 FBO       0.056700
     56 H25          8.5020     1.2640     0.9240 ha         1 FBO       0.132500
     57 H26         10.4110     1.8810    -0.5060 ha         1 FBO       0.132500
     58 H27         11.3690     0.2280    -2.0800 ha         1 FBO       0.131000
     59 H28         10.3960    -2.0420    -2.2210 ha         1 FBO       0.132500
     60 H29          8.4790    -2.6550    -0.7960 ha         1 FBO       0.132500
     61 HN32        -2.3610     4.5010     0.4400 hn         1 FBO       0.339500
     62 HO33        -2.8550     5.4520    -1.8000 ho         1 FBO       0.402000
@<TRIPOS>BOND
     1     1     2 ar  
     2     1     6 ar  
     3     1    33 1   
     4     2     3 ar  
     5     2    34 1   
     6     3     4 ar  
     7     3    35 1   
     8     4     5 ar  
     9     4    36 1   
    10     5     6 ar  
    11     5     7 1   
    12     6    37 1   
    13     7     8 1   
    14     7    38 1   
    15     7    39 1   
    16     8     9 1   
    17     8    12 1   
    18     8    40 1   
    19     9    10 1   
    20     9    11 2   
    21    10    14 1   
    22    10    41 1   
    23    12    42 1   
    24    12    43 1   
    25    13    17 1   
    26    13    18 1   
    27    13    44 1   
    28    13    45 1   
    29    14    15 1   
    30    14    29 1   
    31    14    46 1   
    32    15    16 1   
    33    15    47 1   
    34    15    48 1   
    35    16    17 1   
    36    16    49 1   
    37    16    50 1   
    38    17    51 1   
    39    17    52 1   
    40    18    19 1   
    41    18    53 1   
    42    19    20 1   
    43    19    21 2   
    44    20    22 1   
    45    22    23 1   
    46    22    54 1   
    47    22    55 1   
    48    23    24 ar  
    49    23    28 ar  
    50    24    25 ar  
    51    24    56 1   
    52    25    26 ar  
    53    25    57 1   
    54    26    27 ar  
    55    26    58 1   
    56    27    28 ar  
    57    27    59 1   
    58    28    60 1   
    59    29    30 2   
    60    29    31 1   
    61    31    32 1   
    62    31    61 1   
    63    32    62 1   
@<TRIPOS>SUBSTRUCTURE
     1 FBO         1 TEMP              0 ****  ****    0 ROOT
