@<TRIPOS>MOLECULE
FBO
   62    63     1     0     0
SMALL
No Charge or Current Charge


@<TRIPOS>ATOM
      1 C1          -7.7620    -3.2660    -1.3820 ca         1 FBO      -0.107000
      2 C2          -8.0900    -4.2540    -0.4390 ca         1 FBO      -0.108000
      3 C3          -7.6100    -4.1530     0.8780 ca         1 FBO      -0.107000
      4 C4          -6.8020    -3.0650     1.2510 ca         1 FBO      -0.110000
      5 C5          -6.4660    -2.0720     0.3080 ca         1 FBO      -0.086300
      6 C6          -6.9530    -2.1780    -1.0090 ca         1 FBO      -0.110000
      7 C7          -5.5880    -0.8880     0.7090 c3         1 FBO      -0.075100
      8 C8          -4.1760    -0.9190     0.0700 c3         1 FBO       0.096500
      9 C9          -3.3670     0.3820     0.4290 c          1 FBO       0.607100
     10 N10         -3.0380     1.1880    -0.6440 ns         1 FBO      -0.487900
     11 O11         -3.0410     0.6650     1.5770 o          1 FBO      -0.595100
     12 N12         -3.4930    -2.2170     0.3930 n8         1 FBO      -0.989200
     13 C13          2.1710     0.2060     0.8340 c3         1 FBO       0.122000
     14 C14         -2.2810     2.4600    -0.5600 c3         1 FBO       0.037700
     15 C15         -0.7710     2.2380    -0.8550 c3         1 FBO      -0.086400
     16 C16         -0.0540     1.2850     0.1320 c3         1 FBO      -0.074400
     17 C17          1.4600     1.1590    -0.1460 c3         1 FBO      -0.097400
     18 N18          3.6000     0.1090     0.5490 ns         1 FBO      -0.504900
     19 C20          4.4870    -0.6110     1.2940 c          1 FBO       0.637100
     20 O21          5.7260    -0.4820     0.7510 os         1 FBO      -0.462100
     21 O22          4.2020    -1.2640     2.2860 o          1 FBO      -0.545000
     22 C23          6.8080    -1.1720     1.3970 c3         1 FBO       0.231900
     23 C24          8.0900    -0.8860     0.6260 ca         1 FBO      -0.101300
     24 C25          8.8910     0.2230     0.9630 ca         1 FBO      -0.085000
     25 C26         10.0740     0.4860     0.2510 ca         1 FBO      -0.115500
     26 C27         10.4640    -0.3580    -0.8030 ca         1 FBO      -0.098000
     27 C28          9.6690    -1.4640    -1.1450 ca         1 FBO      -0.115500
     28 C29          8.4850    -1.7280    -0.4340 ca         1 FBO      -0.085000
     29 C30         -2.8990     3.5190    -1.5230 c          1 FBO       0.590100
     30 O31         -3.7090     3.2310    -2.4010 o          1 FBO      -0.570100
     31 N32         -2.4650     4.8270    -1.3220 ns         1 FBO      -0.382400
     32 O33         -3.1380     5.9420    -1.9570 oh         1 FBO      -0.417100
     33 H1          -8.1340    -3.3430    -2.4010 ha         1 FBO       0.113500
     34 H2          -8.7160    -5.0960    -0.7270 ha         1 FBO       0.114000
     35 H3          -7.8650    -4.9160     1.6100 ha         1 FBO       0.113500
     36 H4          -6.4370    -2.9960     2.2730 ha         1 FBO       0.110500
     37 H6          -6.7070    -1.4170    -1.7460 ha         1 FBO       0.110500
     38 H7          -6.0850     0.0450     0.4140 hc         1 FBO       0.069200
     39 H7A         -5.4880    -0.8360     1.8010 hc         1 FBO       0.069200
     40 H8          -4.3190    -0.9030    -1.0200 h1         1 FBO       0.064700
     41 HN10        -3.3640     0.8880    -1.5560 hn         1 FBO       0.321500
     42 HN12        -3.3020    -2.2490     1.4020 hn         1 FBO       0.411000
     43 HN1A        -4.1690    -2.9790     0.2560 hn         1 FBO       0.411000
     44 H13          2.0390     0.5690     1.8620 h1         1 FBO       0.052700
     45 H13A         1.7280    -0.7960     0.7620 h1         1 FBO       0.052700
     46 H14         -2.3840     2.8680     0.4540 h1         1 FBO       0.078700
     47 H15         -0.6580     1.8510    -1.8750 hc         1 FBO       0.056200
     48 H15A        -0.2570     3.2080    -0.8320 hc         1 FBO       0.056200
     49 H16         -0.2040     1.6470     1.1570 hc         1 FBO       0.050700
     50 H16A        -0.5060     0.2880     0.0730 hc         1 FBO       0.050700
     51 H17          1.9240     2.1520    -0.0800 hc         1 FBO       0.046200
     52 H17A         1.6110     0.7990    -1.1710 hc         1 FBO       0.046200
     53 HN18         3.9840     0.6000    -0.2480 hn         1 FBO       0.327500
     54 H23          6.9220    -0.8330     2.4360 h1         1 FBO       0.056700
     55 H23A         6.6240    -2.2550     1.4150 h1         1 FBO       0.056700
     56 H25          8.5950     0.8830     1.7760 ha         1 FBO       0.114500
     57 H26         10.6890     1.3440     0.5160 ha         1 FBO       0.114500
     58 H27         11.3800    -0.1540    -1.3530 ha         1 FBO       0.113000
     59 H28          9.9690    -2.1170    -1.9620 ha         1 FBO       0.114500
     60 H29          7.8730    -2.5850    -0.7070 ha         1 FBO       0.114500
     61 HN32        -1.9100     5.0490    -0.4960 hn         1 FBO       0.339500
     62 HO33        -2.4010     6.4580    -2.3620 ho         1 FBO       0.441000
@<TRIPOS>BOND
     1     1     2 ar  
     2     1     6 ar  
     3     1    33 1   
     4     2     3 ar  
     5     2    34 1   
     6     3     4 ar  
     7     3    35 1   
     8     4     5 ar  
     9     4    36 1   
    10     5     6 ar  
    11     5     7 1   
    12     6    37 1   
    13     7     8 1   
    14     7    38 1   
    15     7    39 1   
    16     8     9 1   
    17     8    12 1   
    18     8    40 1   
    19     9    10 1   
    20     9    11 2   
    21    10    14 1   
    22    10    41 1   
    23    12    42 1   
    24    12    43 1   
    25    13    17 1   
    26    13    18 1   
    27    13    44 1   
    28    13    45 1   
    29    14    15 1   
    30    14    29 1   
    31    14    46 1   
    32    15    16 1   
    33    15    47 1   
    34    15    48 1   
    35    16    17 1   
    36    16    49 1   
    37    16    50 1   
    38    17    51 1   
    39    17    52 1   
    40    18    19 1   
    41    18    53 1   
    42    19    20 1   
    43    19    21 2   
    44    20    22 1   
    45    22    23 1   
    46    22    54 1   
    47    22    55 1   
    48    23    24 ar  
    49    23    28 ar  
    50    24    25 ar  
    51    24    56 1   
    52    25    26 ar  
    53    25    57 1   
    54    26    27 ar  
    55    26    58 1   
    56    27    28 ar  
    57    27    59 1   
    58    28    60 1   
    59    29    30 2   
    60    29    31 1   
    61    31    32 1   
    62    31    61 1   
    63    32    62 1   
@<TRIPOS>SUBSTRUCTURE
     1 FBO         1 TEMP              0 ****  ****    0 ROOT
