@<TRIPOS>MOLECULE
FBQ
   47    49     1     0     0
SMALL
No Charge or Current Charge


@<TRIPOS>ATOM
      1 N1           4.5960    69.0160    62.7010 nb         1 FBQ      -0.710000
      2 C2           5.3330    69.4030    63.7560 ca         1 FBQ       0.336000
      3 C3           4.7940    69.5040    65.0590 ca         1 FBQ      -0.168000
      4 C4           3.4300    69.1630    65.2340 ca         1 FBQ       0.406000
      5 C5           2.6770    68.7070    64.1340 ca         1 FBQ      -0.256300
      6 C6           3.3130    68.6640    62.8800 ca         1 FBQ       0.444300
      7 C7           5.6530    69.9230    66.1150 ca         1 FBQ       0.187000
      8 C8           6.9990    70.2300    65.8690 ca         1 FBQ      -0.167000
      9 C9           7.5210    70.1290    64.5760 ca         1 FBQ      -0.073000
     10 C10          6.6860    69.7180    63.5300 ca         1 FBQ      -0.100000
     11 N11          2.8230    69.2700    66.4600 nv         1 FBQ      -1.109000
     12 C12          1.2110    68.2750    64.2650 c3         1 FBQ       0.149900
     13 S13          0.9930    66.4390    64.0820 ss         1 FBQ      -0.468000
     14 C14          2.1110    65.7710    65.4090 c3         1 FBQ       0.121900
     15 C15          3.5860    65.8040    65.0130 ca         1 FBQ      -0.096300
     16 C16          3.9990    65.3720    63.7360 ca         1 FBQ      -0.042000
     17 C17          5.3600    65.4130    63.3540 ca         1 FBQ      -0.090300
     18 C18          6.3100    65.8770    64.2940 ca         1 FBQ      -0.055000
     19 C19          5.9070    66.2900    65.5740 ca         1 FBQ      -0.119000
     20 C20          4.5520    66.2490    65.9350 ca         1 FBQ      -0.095000
     21 C21          5.8040    64.9110    61.9640 c3         1 FBQ       0.422300
     22 C22          6.1280    63.3660    61.9950 c3         1 FBQ       0.213000
     23 F23          6.5180    62.9190    60.7760 f          1 FBQ      -0.110000
     24 F24          5.0450    62.6420    62.3660 f          1 FBQ      -0.110000
     25 F25          7.1250    63.0870    62.8690 f          1 FBQ      -0.110000
     26 O26          4.7960    65.1950    60.9990 oh         1 FBQ      -0.641500
     27 F27          5.2300    70.0340    67.3960 f          1 FBQ      -0.199000
     28 C28          2.6010    68.2350    61.6040 c3         1 FBQ      -0.156400
     29 OS6          6.9340    65.6550    61.5160 oh         1 FBQ      -0.641500
     30 HC8          7.6390    70.5450    66.6890 ha         1 FBQ       0.131000
     31 HC9          8.5660    70.3650    64.3830 ha         1 FBQ       0.120000
     32 HC01         7.0900    69.6360    62.5250 ha         1 FBQ       0.135000
     33 H111         1.9320    68.8190    66.6320 hn         1 FBQ       0.486000
     34 H112         3.4010    69.4940    67.2670 hn         1 FBQ       0.486000
     35 H121         0.6140    68.7720    63.4900 h1         1 FBQ       0.068700
     36 H122         0.7730    68.5820    65.2220 h1         1 FBQ       0.068700
     37 H141         1.8260    64.7300    65.6100 h1         1 FBQ       0.071200
     38 H142         1.9520    66.3410    66.3330 h1         1 FBQ       0.071200
     39 HC61         3.2530    65.0020    63.0360 ha         1 FBQ       0.147000
     40 HC81         7.3670    65.9080    64.0390 ha         1 FBQ       0.134000
     41 HC91         6.6480    66.6420    66.2880 ha         1 FBQ       0.120000
     42 HC02         4.2530    66.5730    66.9290 ha         1 FBQ       0.107000
     43 HO62         4.9190    64.5570    60.2680 ho         1 FBQ       0.460000
     44 H281         2.3690    67.1660    61.6250 hc         1 FBQ       0.057700
     45 H282         3.2170    68.4130    60.7140 hc         1 FBQ       0.057700
     46 H283         1.6670    68.7880    61.4620 hc         1 FBQ       0.057700
     47 H6SO         7.4050    65.0880    60.8730 ho         1 FBQ       0.460000
@<TRIPOS>BOND
     1     1     2 ar  
     2     1     6 ar  
     3     2     3 ar  
     4     2    10 ar  
     5     3     4 ar  
     6     3     7 ar  
     7     4     5 ar  
     8     4    11 1   
     9     5     6 ar  
    10     5    12 1   
    11     6    28 1   
    12     7     8 ar  
    13     7    27 1   
    14     8     9 ar  
    15     8    30 1   
    16     9    10 ar  
    17     9    31 1   
    18    10    32 1   
    19    11    33 1   
    20    11    34 1   
    21    12    13 1   
    22    12    35 1   
    23    12    36 1   
    24    13    14 1   
    25    14    15 1   
    26    14    37 1   
    27    14    38 1   
    28    15    16 ar  
    29    15    20 ar  
    30    16    17 ar  
    31    16    39 1   
    32    17    18 ar  
    33    17    21 1   
    34    18    19 ar  
    35    18    40 1   
    36    19    20 ar  
    37    19    41 1   
    38    20    42 1   
    39    21    22 1   
    40    21    26 1   
    41    21    29 1   
    42    22    23 1   
    43    22    24 1   
    44    22    25 1   
    45    26    43 1   
    46    28    44 1   
    47    28    45 1   
    48    28    46 1   
    49    29    47 1   
@<TRIPOS>SUBSTRUCTURE
     1 FBQ         1 TEMP              0 ****  ****    0 ROOT
