@<TRIPOS>MOLECULE
FBQ
   47    49     1     0     0
SMALL
abcg2


@<TRIPOS>ATOM
      1 N1           4.4060    69.0370    62.4000 nb         1 FBQ      -0.710000
      2 C2           5.2610    69.2930    63.4230 ca         1 FBQ       0.336000
      3 C3           4.8420    69.3130    64.7860 ca         1 FBQ      -0.168000
      4 C4           3.4650    69.0160    65.0700 ca         1 FBQ       0.406000
      5 C5           2.6310    68.6930    63.9970 ca         1 FBQ      -0.256300
      6 C6           3.1500    68.7430    62.6810 ca         1 FBQ       0.444300
      7 C7           5.8460    69.5880    65.7400 ca         1 FBQ       0.187000
      8 C8           7.1550    69.8210    65.4280 ca         1 FBQ      -0.167000
      9 C9           7.5420    69.7920    64.0770 ca         1 FBQ      -0.073000
     10 C10          6.6160    69.5390    63.1000 ca         1 FBQ      -0.100000
     11 N11          2.9950    69.0640    66.3470 nv         1 FBQ      -1.109000
     12 C12          1.2170    68.2520    64.2270 c3         1 FBQ       0.149900
     13 S13          0.9410    66.4320    64.1250 ss         1 FBQ      -0.468000
     14 C14          2.0270    65.7460    65.4190 c3         1 FBQ       0.121900
     15 C15          3.5150    65.7880    65.1640 ca         1 FBQ      -0.096300
     16 C16          4.0480    65.5240    63.9050 ca         1 FBQ      -0.042000
     17 C17          5.4220    65.5500    63.6930 ca         1 FBQ      -0.090300
     18 C18          6.2830    65.8370    64.7500 ca         1 FBQ      -0.055000
     19 C19          5.7590    66.0910    66.0100 ca         1 FBQ      -0.119000
     20 C20          4.3850    66.0640    66.2160 ca         1 FBQ      -0.095000
     21 C21          5.9800    65.2350    62.3180 c3         1 FBQ       0.422300
     22 C22          6.2520    63.7050    62.1850 c3         1 FBQ       0.213000
     23 F23          6.7460    63.4230    60.9540 f          1 FBQ      -0.110000
     24 F24          5.1340    62.9770    62.3380 f          1 FBQ      -0.110000
     25 F25          7.1490    63.2670    63.0820 f          1 FBQ      -0.110000
     26 O26          5.0300    65.5870    61.3500 oh         1 FBQ      -0.641500
     27 F27          5.5220    69.6150    67.0660 f          1 FBQ      -0.199000
     28 C28          2.2660    68.4400    61.5040 c3         1 FBQ      -0.156400
     29 OS6          7.1980    65.9080    62.1580 oh         1 FBQ      -0.641500
     30 HC8          7.8640    70.0160    66.2200 ha         1 FBQ       0.131000
     31 HC9          8.5780    69.9720    63.8190 ha         1 FBQ       0.120000
     32 HC01         6.8950    69.5080    62.0550 ha         1 FBQ       0.135000
     33 H111         2.0950    68.6720    66.5580 hn         1 FBQ       0.486000
     34 H112         3.6450    69.0850    67.1110 hn         1 FBQ       0.486000
     35 H121         0.5540    68.6360    63.4530 h1         1 FBQ       0.068700
     36 H122         0.8120    68.6030    65.1740 h1         1 FBQ       0.068700
     37 H141         1.6910    64.7070    65.4880 h1         1 FBQ       0.071200
     38 H142         1.7930    66.2170    66.3740 h1         1 FBQ       0.071200
     39 HC61         3.3820    65.3250    63.0790 ha         1 FBQ       0.147000
     40 HC81         7.3500    65.8720    64.5860 ha         1 FBQ       0.134000
     41 HC91         6.4230    66.3290    66.8310 ha         1 FBQ       0.120000
     42 HC02         3.9820    66.2790    67.1980 ha         1 FBQ       0.107000
     43 HO62         5.3590    65.3630    60.4670 ho         1 FBQ       0.460000
     44 H281         1.8700    67.4240    61.5660 hc         1 FBQ       0.057700
     45 H282         2.8410    68.5410    60.5860 hc         1 FBQ       0.057700
     46 H283         1.4100    69.1180    61.4620 hc         1 FBQ       0.057700
     47 H6SO         7.5970    65.6740    61.3060 ho         1 FBQ       0.460000
@<TRIPOS>BOND
     1     1     2 ar  
     2     1     6 ar  
     3     2     3 ar  
     4     2    10 ar  
     5     3     4 ar  
     6     3     7 ar  
     7     4     5 ar  
     8     4    11 1   
     9     5     6 ar  
    10     5    12 1   
    11     6    28 1   
    12     7     8 ar  
    13     7    27 1   
    14     8     9 ar  
    15     8    30 1   
    16     9    10 ar  
    17     9    31 1   
    18    10    32 1   
    19    11    33 1   
    20    11    34 1   
    21    12    13 1   
    22    12    35 1   
    23    12    36 1   
    24    13    14 1   
    25    14    15 1   
    26    14    37 1   
    27    14    38 1   
    28    15    16 ar  
    29    15    20 ar  
    30    16    17 ar  
    31    16    39 1   
    32    17    18 ar  
    33    17    21 1   
    34    18    19 ar  
    35    18    40 1   
    36    19    20 ar  
    37    19    41 1   
    38    20    42 1   
    39    21    22 1   
    40    21    26 1   
    41    21    29 1   
    42    22    23 1   
    43    22    24 1   
    44    22    25 1   
    45    26    43 1   
    46    28    44 1   
    47    28    45 1   
    48    28    46 1   
    49    29    47 1   
@<TRIPOS>SUBSTRUCTURE
     1 FBQ         1 TEMP              0 ****  ****    0 ROOT
