@<TRIPOS>MOLECULE
FBR
   39    41     1     0     0
SMALL
No Charge or Current Charge


@<TRIPOS>ATOM
      1 C1           4.8590    -1.6690    -2.4450 c5         1 FBR      -0.026800
      2 C2           5.5230    -2.3810    -3.6590 c6         1 FBR      -0.057400
      3 C3           6.6020    -3.3810    -3.1980 c6         1 FBR      -0.176400
      4 C4           6.0750    -4.3550    -2.1400 c          1 FBR       0.582300
      5 O5           6.6020    -5.4540    -2.0040 o          1 FBR      -0.503100
      6 C6           4.8660    -3.9350    -1.3430 ce         1 FBR      -0.167500
      7 Br7          4.1870    -5.3020    -0.1810 br         1 FBR      -0.063700
      8 C8           4.2420    -2.7160    -1.4640 cf         1 FBR       0.059600
      9 C9           3.0510    -2.1200    -0.8690 ca         1 FBR      -0.126800
     10 C10          2.3340    -2.4710     0.2890 ca         1 FBR      -0.017000
     11 C11          1.2070    -1.7020     0.6390 ca         1 FBR      -0.162000
     12 C12          0.8170    -0.6070    -0.1540 ca         1 FBR       0.167100
     13 O13         -0.2750     0.1250     0.1990 oh         1 FBR      -0.525100
     14 C14          1.5520    -0.2660    -1.3030 ca         1 FBR      -0.211000
     15 C15          2.6760    -1.0340    -1.6450 ca         1 FBR      -0.018300
     16 C16          3.5800    -0.8170    -2.8490 c5         1 FBR      -0.036100
     17 C17          5.8790    -0.8000    -1.6290 c3         1 FBR      -0.068400
     18 C18          6.6710     0.2760    -2.4180 c3         1 FBR      -0.076400
     19 C19          7.5720     1.1410    -1.5100 c3         1 FBR      -0.077400
     20 C20          8.3680     2.2060    -2.2890 c3         1 FBR      -0.089100
     21 H21          5.9460    -1.6510    -4.3620 hc         1 FBR       0.053700
     22 H22          4.7530    -2.9280    -4.2220 hc         1 FBR       0.053700
     23 H31          7.4330    -2.8320    -2.7400 hc         1 FBR       0.073700
     24 H32          7.0380    -3.9480    -4.0310 hc         1 FBR       0.073700
     25 H10          2.6370    -3.2990     0.9220 ha         1 FBR       0.135000
     26 H11          0.6380    -1.9530     1.5310 ha         1 FBR       0.134000
     27 HO13        -0.3930     0.8390    -0.4630 ho         1 FBR       0.469000
     28 H14          1.2620     0.5790    -1.9230 ha         1 FBR       0.118000
     29 H161         3.1040    -1.2020    -3.7580 hc         1 FBR       0.064200
     30 H162         3.7990     0.2410    -3.0280 hc         1 FBR       0.064200
     31 H171         6.5990    -1.4480    -1.1160 hc         1 FBR       0.050700
     32 H172         5.3390    -0.2900    -0.8220 hc         1 FBR       0.050700
     33 H181         7.3040    -0.2110    -3.1700 hc         1 FBR       0.038200
     34 H182         5.9780     0.9310    -2.9580 hc         1 FBR       0.038200
     35 H191         8.2740     0.4940    -0.9700 hc         1 FBR       0.039700
     36 H192         6.9530     1.6420    -0.7540 hc         1 FBR       0.039700
     37 H201         7.6910     2.8920    -2.8120 hc         1 FBR       0.032700
     38 H202         9.0250     1.7340    -3.0300 hc         1 FBR       0.032700
     39 H203         8.9910     2.7940    -1.6040 hc         1 FBR       0.032700
@<TRIPOS>BOND
     1     1     2 1   
     2     1     8 1   
     3     1    16 1   
     4     1    17 1   
     5     2     3 1   
     6     2    21 1   
     7     2    22 1   
     8     3     4 1   
     9     3    23 1   
    10     3    24 1   
    11     4     5 2   
    12     4     6 1   
    13     6     7 1   
    14     6     8 2   
    15     8     9 1   
    16     9    10 ar  
    17     9    15 ar  
    18    10    11 ar  
    19    10    25 1   
    20    11    12 ar  
    21    11    26 1   
    22    12    13 1   
    23    12    14 ar  
    24    13    27 1   
    25    14    15 ar  
    26    14    28 1   
    27    15    16 1   
    28    16    29 1   
    29    16    30 1   
    30    17    18 1   
    31    17    31 1   
    32    17    32 1   
    33    18    19 1   
    34    18    33 1   
    35    18    34 1   
    36    19    20 1   
    37    19    35 1   
    38    19    36 1   
    39    20    37 1   
    40    20    38 1   
    41    20    39 1   
@<TRIPOS>SUBSTRUCTURE
     1 FBR         1 TEMP              0 ****  ****    0 ROOT
