@<TRIPOS>MOLECULE
FBR
   39    41     1     0     0
SMALL
bcc


@<TRIPOS>ATOM
      1 C1           4.8670    -1.6470    -2.4200 c5         1 FBR      -0.026800
      2 C2           5.5110    -2.3190    -3.6220 c6         1 FBR      -0.057400
      3 C3           6.5650    -3.3130    -3.1690 c6         1 FBR      -0.176400
      4 C4           6.0520    -4.3040    -2.1520 c          1 FBR       0.582300
      5 O5           6.5950    -5.3790    -1.9910 o          1 FBR      -0.503100
      6 C6           4.8700    -3.9090    -1.3690 ce         1 FBR      -0.167500
      7 BR7          4.2210    -5.2710    -0.2320 br         1 FBR      -0.063700
      8 C8           4.2850    -2.6980    -1.4810 cf         1 FBR       0.059600
      9 C9           3.0920    -2.1260    -0.8810 ca         1 FBR      -0.126800
     10 C10          2.3340    -2.4810     0.2400 ca         1 FBR      -0.035000
     11 C11          1.2280    -1.7330     0.5850 ca         1 FBR      -0.180000
     12 C12          0.8500    -0.6240    -0.1820 ca         1 FBR       0.167100
     13 O13         -0.2380     0.0520     0.2080 oh         1 FBR      -0.486100
     14 C14          1.6020    -0.2540    -1.2970 ca         1 FBR      -0.229000
     15 C15          2.7120    -1.0020    -1.6280 ca         1 FBR      -0.018300
     16 C16          3.6430    -0.7830    -2.7770 c5         1 FBR      -0.036100
     17 C17          5.8710    -0.8000    -1.6010 c3         1 FBR      -0.068400
     18 C18          6.6810     0.2010    -2.4180 c3         1 FBR      -0.076400
     19 C19          7.4970     1.1370    -1.5330 c3         1 FBR      -0.077400
     20 C20          8.3350     2.1210    -2.3370 c3         1 FBR      -0.089100
     21 H21          5.9540    -1.5800    -4.2920 hc         1 FBR       0.053700
     22 H22          4.7390    -2.8370    -4.1990 hc         1 FBR       0.053700
     23 H31          7.4130    -2.7910    -2.7120 hc         1 FBR       0.073700
     24 H32          6.9710    -3.8740    -4.0110 hc         1 FBR       0.073700
     25 H10          2.6040    -3.3160     0.8690 ha         1 FBR       0.153000
     26 H11          0.6460    -1.9970     1.4590 ha         1 FBR       0.152000
     27 HO13        -0.4130     0.7900    -0.3870 ho         1 FBR       0.430000
     28 H14          1.3200     0.6110    -1.8880 ha         1 FBR       0.136000
     29 H161         3.1800    -1.1310    -3.7070 hc         1 FBR       0.064200
     30 H162         3.8950     0.2680    -2.9230 hc         1 FBR       0.064200
     31 H171         6.5590    -1.4570    -1.0610 hc         1 FBR       0.050700
     32 H172         5.3120    -0.2620    -0.8280 hc         1 FBR       0.050700
     33 H181         7.3620    -0.3260    -3.0930 hc         1 FBR       0.038200
     34 H182         6.0190     0.7960    -3.0560 hc         1 FBR       0.038200
     35 H191         8.1480     0.5430    -0.8830 hc         1 FBR       0.039700
     36 H192         6.8220     1.6860    -0.8690 hc         1 FBR       0.039700
     37 H201         7.7040     2.7570    -2.9610 hc         1 FBR       0.032700
     38 H202         9.0320     1.6000    -2.9960 hc         1 FBR       0.032700
     39 H203         8.9190     2.7730    -1.6870 hc         1 FBR       0.032700
@<TRIPOS>BOND
     1     1     2 1   
     2     1     8 1   
     3     1    16 1   
     4     1    17 1   
     5     2     3 1   
     6     2    21 1   
     7     2    22 1   
     8     3     4 1   
     9     3    23 1   
    10     3    24 1   
    11     4     5 2   
    12     4     6 1   
    13     6     7 1   
    14     6     8 2   
    15     8     9 1   
    16     9    10 ar  
    17     9    15 ar  
    18    10    11 ar  
    19    10    25 1   
    20    11    12 ar  
    21    11    26 1   
    22    12    13 1   
    23    12    14 ar  
    24    13    27 1   
    25    14    15 ar  
    26    14    28 1   
    27    15    16 1   
    28    16    29 1   
    29    16    30 1   
    30    17    18 1   
    31    17    31 1   
    32    17    32 1   
    33    18    19 1   
    34    18    33 1   
    35    18    34 1   
    36    19    20 1   
    37    19    35 1   
    38    19    36 1   
    39    20    37 1   
    40    20    38 1   
    41    20    39 1   
@<TRIPOS>SUBSTRUCTURE
     1 FBR         1 TEMP              0 ****  ****    0 ROOT
