@<TRIPOS>MOLECULE
FBS
   17    17     1     0     0
SMALL
abcg2


@<TRIPOS>ATOM
      1 C01         -2.6290    -0.0310    -0.0130 ca         1 FBS       0.229000
      2 C02         -1.9310    -1.2240    -0.0840 ca         1 FBS      -0.177500
      3 C03         -0.5490    -1.1850    -0.0650 ca         1 FBS       0.018500
      4 C04          0.0990     0.0420     0.0250 ca         1 FBS      -0.294500
      5 C05         -0.6130     1.2290     0.0990 ca         1 FBS       0.018500
      6 C06         -1.9990     1.1950     0.0780 ca         1 FBS      -0.177500
      7 S07          1.8660     0.0700     0.0650 sy         1 FBS       1.130600
      8 O08          2.2800     1.4100     0.4590 o          1 FBS      -0.542500
      9 O09          2.3530    -1.0590     0.8440 o          1 FBS      -0.542500
     10 NP0          2.2250    -0.2820    -1.5080 n8         1 FBS      -1.005100
     11 F11         -3.9640    -0.0690    -0.0320 f          1 FBS      -0.168000
     12 HC2         -2.4580    -2.1670    -0.1520 ha         1 FBS       0.139500
     13 HC3          0.0100    -2.1090    -0.1210 ha         1 FBS       0.141500
     14 HC5         -0.1050     2.1800     0.1750 ha         1 FBS       0.141500
     15 HC6         -2.5760     2.1080     0.1360 ha         1 FBS       0.139500
     16 HN01         2.0410     0.4920    -2.1370 hn         1 FBS       0.474500
     17 HN02         3.1860    -0.5980    -1.6080 hn         1 FBS       0.474500
@<TRIPOS>BOND
     1     1     2 ar  
     2     1     6 ar  
     3     1    11 1   
     4     2     3 ar  
     5     2    12 1   
     6     3     4 ar  
     7     3    13 1   
     8     4     5 ar  
     9     4     7 1   
    10     5     6 ar  
    11     5    14 1   
    12     6    15 1   
    13     7     8 2   
    14     7     9 2   
    15     7    10 1   
    16    10    16 1   
    17    10    17 1   
@<TRIPOS>SUBSTRUCTURE
     1 FBS         1 TEMP              0 ****  ****    0 ROOT
