@<TRIPOS>MOLECULE
FBS
   17    17     1     0     0
SMALL
No Charge or Current Charge


@<TRIPOS>ATOM
      1 C01         -2.7260    -0.0670     0.0280 ca         1 FBS       0.229000
      2 C02         -1.9960    -1.2640     0.0400 ca         1 FBS      -0.177500
      3 C03         -0.5910    -1.2300     0.0270 ca         1 FBS       0.018500
      4 C04          0.0800     0.0110     0.0030 ca         1 FBS      -0.294500
      5 C05         -0.6590     1.2120    -0.0110 ca         1 FBS       0.018500
      6 C06         -2.0640     1.1680     0.0020 ca         1 FBS      -0.177500
      7 S07          1.8720     0.0600    -0.0140 sy         1 FBS       1.130600
      8 O08          2.3640     1.3620     0.4320 o          1 FBS      -0.542500
      9 O09          2.4350    -1.1970     0.4740 o          1 FBS      -0.542500
     10 NP0          2.2210     0.0440    -1.6060 n8         1 FBS      -1.005100
     11 F11         -4.0770    -0.1050     0.0400 f          1 FBS      -0.168000
     12 HC2         -2.5190    -2.2170     0.0590 ha         1 FBS       0.139500
     13 HC3         -0.0310    -2.1650     0.0350 ha         1 FBS       0.141500
     14 HC5         -0.1520     2.1760    -0.0340 ha         1 FBS       0.141500
     15 HC6         -2.6390     2.0900    -0.0090 ha         1 FBS       0.139500
     16 HN01         2.8370     0.8520    -1.6650 hn         1 FBS       0.474500
     17 HN02         2.8810    -0.7290    -1.6400 hn         1 FBS       0.474500
@<TRIPOS>BOND
     1     1     2 ar  
     2     1     6 ar  
     3     1    11 1   
     4     2     3 ar  
     5     2    12 1   
     6     3     4 ar  
     7     3    13 1   
     8     4     5 ar  
     9     4     7 1   
    10     5     6 ar  
    11     5    14 1   
    12     6    15 1   
    13     7     8 2   
    14     7     9 2   
    15     7    10 1   
    16    10    16 1   
    17    10    17 1   
@<TRIPOS>SUBSTRUCTURE
     1 FBS         1 TEMP              0 ****  ****    0 ROOT
