@<TRIPOS>MOLECULE
FBT
   17    17     1     0     0
SMALL
abcg2


@<TRIPOS>ATOM
      1 C01         -0.0350    -0.0550    -3.0860 ca         1 FBT      -0.003000
      2 C02         -1.1990    -0.1820    -2.3420 ca         1 FBT      -0.200500
      3 C03         -1.1050    -0.1550    -0.9690 ca         1 FBT       0.303000
      4 C04          0.1110    -0.0100    -0.3010 ca         1 FBT      -0.370500
      5 C05          1.2550     0.1110    -1.0870 ca         1 FBT       0.303000
      6 C06          1.1950     0.0910    -2.4680 ca         1 FBT      -0.200500
      7 S07          0.1180     0.0580     1.4760 sy         1 FBT       1.157600
      8 O08         -0.9000     0.9980     1.9080 o          1 FBT      -0.532000
      9 O09          1.4820     0.2710     1.9210 o          1 FBT      -0.532000
     10 NP0         -0.4380    -1.4460     1.8370 n8         1 FBT      -1.015100
     11 F11         -2.2160    -0.2820    -0.2510 f          1 FBT      -0.141500
     12 F12          2.4500     0.2450    -0.5250 f          1 FBT      -0.141500
     13 HC1         -0.0880    -0.0710    -4.1650 ha         1 FBT       0.126000
     14 HC2         -2.1630    -0.3000    -2.8170 ha         1 FBT       0.142500
     15 HC6          2.1050     0.1890    -3.0440 ha         1 FBT       0.142500
     16 HN01        -0.9070    -1.4680     2.7380 hn         1 FBT       0.480500
     17 HN02         0.2790    -2.1610     1.7830 hn         1 FBT       0.480500
@<TRIPOS>BOND
     1     1     2 ar  
     2     1     6 ar  
     3     1    13 1   
     4     2     3 ar  
     5     2    14 1   
     6     3     4 ar  
     7     3    11 1   
     8     4     5 ar  
     9     4     7 1   
    10     5     6 ar  
    11     5    12 1   
    12     6    15 1   
    13     7     8 2   
    14     7     9 2   
    15     7    10 1   
    16    10    16 1   
    17    10    17 1   
@<TRIPOS>SUBSTRUCTURE
     1 FBT         1 TEMP              0 ****  ****    0 ROOT
