@<TRIPOS>MOLECULE
FBT
   17    17     1     0     0
SMALL
No Charge or Current Charge


@<TRIPOS>ATOM
      1 C01         -0.0510    -0.0190    -3.1570 ca         1 FBT      -0.003000
      2 C02         -1.2250    -0.1020    -2.3950 ca         1 FBT      -0.200500
      3 C03         -1.1630    -0.1030    -0.9930 ca         1 FBT       0.303000
      4 C04          0.0760    -0.0170    -0.3300 ca         1 FBT      -0.370500
      5 C05          1.2540     0.0580    -1.1010 ca         1 FBT       0.303000
      6 C06          1.1860     0.0590    -2.5030 ca         1 FBT      -0.200500
      7 S07          0.1210    -0.0160     1.4510 sy         1 FBT       1.157600
      8 O08         -1.0140     0.7190     2.0010 o          1 FBT      -0.532000
      9 O09          1.4720     0.1630     1.9740 o          1 FBT      -0.532000
     10 NP0         -0.2280    -1.5640     1.8140 n8         1 FBT      -1.015100
     11 F11         -2.3240    -0.2020    -0.3070 f          1 FBT      -0.141500
     12 F12          2.4760     0.1320    -0.5320 f          1 FBT      -0.141500
     13 HC1         -0.1000    -0.0190    -4.2450 ha         1 FBT       0.126000
     14 HC2         -2.1900    -0.1690    -2.8900 ha         1 FBT       0.142500
     15 HC6          2.1030     0.1200    -3.0840 ha         1 FBT       0.142500
     16 HN01        -0.9950    -1.4240     2.4680 hn         1 FBT       0.480500
     17 HN02         0.5460    -1.7810     2.4370 hn         1 FBT       0.480500
@<TRIPOS>BOND
     1     1     2 ar  
     2     1     6 ar  
     3     1    13 1   
     4     2     3 ar  
     5     2    14 1   
     6     3     4 ar  
     7     3    11 1   
     8     4     5 ar  
     9     4     7 1   
    10     5     6 ar  
    11     5    12 1   
    12     6    15 1   
    13     7     8 2   
    14     7     9 2   
    15     7    10 1   
    16    10    16 1   
    17    10    17 1   
@<TRIPOS>SUBSTRUCTURE
     1 FBT         1 TEMP              0 ****  ****    0 ROOT
