@<TRIPOS>MOLECULE
FBU
   17    17     1     0     0
SMALL
No Charge or Current Charge


@<TRIPOS>ATOM
      1 C01          0.0460     0.0020    -2.6130 ca         1 FBU      -0.153000
      2 C02         -1.1800    -0.0250    -1.9310 ca         1 FBU       0.185000
      3 C03         -1.2160    -0.0350    -0.5260 ca         1 FBU      -0.075500
      4 C04         -0.0110    -0.0170     0.2140 ca         1 FBU      -0.214500
      5 C05          1.2230     0.0060    -0.4770 ca         1 FBU      -0.075500
      6 C06          1.2430     0.0160    -1.8820 ca         1 FBU       0.185000
      7 S07         -0.0480    -0.0360     2.0160 sy         1 FBU       1.130600
      8 O08         -1.3460     0.4100     2.5170 o          1 FBU      -0.536000
      9 O09          1.2130     0.4540     2.5690 o          1 FBU      -0.536000
     10 NP0         -0.0270    -1.6280     2.3720 n8         1 FBU      -1.011100
     11 F11          2.4250     0.0400    -2.5360 f          1 FBU      -0.165500
     12 F12         -2.3350    -0.0410    -2.6320 f          1 FBU      -0.165500
     13 HC1          0.0680     0.0090    -3.6980 ha         1 FBU       0.154000
     14 HC3         -2.1790    -0.0580    -0.0210 ha         1 FBU       0.159500
     15 HC5          2.1650     0.0160     0.0680 ha         1 FBU       0.159500
     16 HN01         0.7510    -1.6580     3.0270 hn         1 FBU       0.479500
     17 HN02        -0.8300    -1.6860     2.9950 hn         1 FBU       0.479500
@<TRIPOS>BOND
     1     1     2 ar  
     2     1     6 ar  
     3     1    13 1   
     4     2     3 ar  
     5     2    12 1   
     6     3     4 ar  
     7     3    14 1   
     8     4     5 ar  
     9     4     7 1   
    10     5     6 ar  
    11     5    15 1   
    12     6    11 1   
    13     7     8 2   
    14     7     9 2   
    15     7    10 1   
    16    10    16 1   
    17    10    17 1   
@<TRIPOS>SUBSTRUCTURE
     1 FBU         1 TEMP              0 ****  ****    0 ROOT
