@<TRIPOS>MOLECULE
FBU
   17    17     1     0     0
SMALL
abcg2


@<TRIPOS>ATOM
      1 C01          0.0200    -0.0450    -2.5380 ca         1 FBU      -0.153000
      2 C02         -1.1720     0.0180    -1.8450 ca         1 FBU       0.185000
      3 C03         -1.2340     0.0490    -0.4640 ca         1 FBU      -0.075500
      4 C04         -0.0330     0.0080     0.2240 ca         1 FBU      -0.214500
      5 C05          1.1960    -0.0540    -0.4170 ca         1 FBU      -0.075500
      6 C06          1.1870    -0.0800    -1.7960 ca         1 FBU       0.185000
      7 S07         -0.0540     0.0460     2.0010 sy         1 FBU       1.130600
      8 O08         -1.3800     0.4820     2.4110 o          1 FBU      -0.536000
      9 O09          1.1050     0.7870     2.4730 o          1 FBU      -0.536000
     10 NP0          0.2420    -1.5360     2.3460 n8         1 FBU      -1.011100
     11 F11          2.3500    -0.1380    -2.4470 f          1 FBU      -0.165500
     12 F12         -2.3110     0.0550    -2.5380 f          1 FBU      -0.165500
     13 HC1          0.0420    -0.0630    -3.6190 ha         1 FBU       0.154000
     14 HC3         -2.1870     0.1060     0.0440 ha         1 FBU       0.159500
     15 HC5          2.1300    -0.0820     0.1290 ha         1 FBU       0.159500
     16 HN01         0.6300    -1.6530     3.2770 hn         1 FBU       0.479500
     17 HN02        -0.5700    -2.1310     2.2190 hn         1 FBU       0.479500
@<TRIPOS>BOND
     1     1     2 ar  
     2     1     6 ar  
     3     1    13 1   
     4     2     3 ar  
     5     2    12 1   
     6     3     4 ar  
     7     3    14 1   
     8     4     5 ar  
     9     4     7 1   
    10     5     6 ar  
    11     5    15 1   
    12     6    11 1   
    13     7     8 2   
    14     7     9 2   
    15     7    10 1   
    16    10    16 1   
    17    10    17 1   
@<TRIPOS>SUBSTRUCTURE
     1 FBU         1 TEMP              0 ****  ****    0 ROOT
