@<TRIPOS>MOLECULE
FBV
   17    17     1     0     0
SMALL
abcg2


@<TRIPOS>ATOM
      1 C1          -3.0740    -0.3300    -0.0430 ca         1 FBV      -0.029000
      2 C2          -2.3390    -1.5080    -0.0340 ca         1 FBV      -0.151000
      3 C3          -0.9540    -1.4580    -0.0010 ca         1 FBV       0.011000
      4 C4          -0.3070    -0.2300     0.0220 ca         1 FBV      -0.322500
      5 C5          -1.0590     0.9380     0.0160 ca         1 FBV       0.281000
      6 C6          -2.4370     0.9030    -0.0190 ca         1 FBV      -0.178000
      7 S            1.4610    -0.1640     0.1010 sy         1 FBV       1.145600
      8 N2           1.8190     0.5770    -1.3250 n8         1 FBV      -1.010100
      9 O1           1.8750     0.7480     1.1540 o          1 FBV      -0.540500
     10 O2           1.9330    -1.5400     0.1520 o          1 FBV      -0.540500
     11 F           -0.4410     2.1180     0.0350 f          1 FBV      -0.151000
     12 H1          -4.1540    -0.3660    -0.0690 ha         1 FBV       0.121000
     13 H2          -2.8410    -2.4650    -0.0530 ha         1 FBV       0.125000
     14 H6          -3.0010     1.8260    -0.0270 ha         1 FBV       0.138000
     15 H3          -0.3780    -2.3730     0.0050 ha         1 FBV       0.144000
     16 H21N         2.7170     1.0500    -1.2880 hn         1 FBV       0.478000
     17 H22N         1.7760    -0.0490    -2.1220 hn         1 FBV       0.478000
@<TRIPOS>BOND
     1     1     2 ar  
     2     1     6 ar  
     3     1    12 1   
     4     2     3 ar  
     5     2    13 1   
     6     3     4 ar  
     7     3    15 1   
     8     4     5 ar  
     9     4     7 1   
    10     5     6 ar  
    11     5    11 1   
    12     6    14 1   
    13     7     8 1   
    14     7     9 2   
    15     7    10 2   
    16     8    16 1   
    17     8    17 1   
@<TRIPOS>SUBSTRUCTURE
     1 FBV         1 TEMP              0 ****  ****    0 ROOT
