@<TRIPOS>MOLECULE
FBV
   17    17     1     0     0
SMALL
No Charge or Current Charge


@<TRIPOS>ATOM
      1 C1          -3.1480    -0.3150    -0.0040 ca         1 FBV      -0.029000
      2 C2          -2.3980    -1.5000    -0.0800 ca         1 FBV      -0.151000
      3 C3          -0.9930    -1.4530    -0.0730 ca         1 FBV       0.011000
      4 C4          -0.3290    -0.2100     0.0140 ca         1 FBV      -0.322500
      5 C5          -1.0840     0.9760     0.0840 ca         1 FBV       0.281000
      6 C6          -2.4870     0.9210     0.0760 ca         1 FBV      -0.178000
      7 S            1.4570    -0.1580     0.0250 sy         1 FBV       1.145600
      8 N2           1.8190     0.3500    -1.4800 n8         1 FBV      -1.010100
      9 O1           1.9530     0.9210     0.8750 o          1 FBV      -0.540500
     10 O2           2.0160    -1.5060     0.0820 o          1 FBV      -0.540500
     11 F           -0.4880     2.1880     0.1460 f          1 FBV      -0.151000
     12 H1          -4.2360    -0.3550    -0.0100 ha         1 FBV       0.121000
     13 H2          -2.9070    -2.4600    -0.1440 ha         1 FBV       0.125000
     14 H6          -3.0610     1.8420     0.1290 ha         1 FBV       0.138000
     15 H3          -0.4300    -2.3840    -0.1340 ha         1 FBV       0.144000
     16 H21N         2.3950     1.1600    -1.2610 hn         1 FBV       0.478000
     17 H22N         2.5170    -0.3420    -1.7420 hn         1 FBV       0.478000
@<TRIPOS>BOND
     1     1     2 ar  
     2     1     6 ar  
     3     1    12 1   
     4     2     3 ar  
     5     2    13 1   
     6     3     4 ar  
     7     3    15 1   
     8     4     5 ar  
     9     4     7 1   
    10     5     6 ar  
    11     5    11 1   
    12     6    14 1   
    13     7     8 1   
    14     7     9 2   
    15     7    10 2   
    16     8    16 1   
    17     8    17 1   
@<TRIPOS>SUBSTRUCTURE
     1 FBV         1 TEMP              0 ****  ****    0 ROOT
