@<TRIPOS>MOLECULE
FBW
   17    17     1     0     0
SMALL
No Charge or Current Charge


@<TRIPOS>ATOM
      1 C1          -2.7470     0.8340     0.0300 ca         1 FBW      -0.100000
      2 C2          -2.2990    -0.4960     0.0700 ca         1 FBW       0.155000
      3 C3          -0.9250    -0.7850     0.0600 ca         1 FBW      -0.048000
      4 C4           0.0180     0.2670     0.0090 ca         1 FBW      -0.242500
      5 C5          -0.4340     1.6050    -0.0340 ca         1 FBW      -0.036000
      6 C6          -1.8130     1.8850    -0.0230 ca         1 FBW      -0.105000
      7 S            1.7800    -0.0980    -0.0070 sy         1 FBW       1.124600
      8 N2           2.1110    -0.2550    -1.5970 n8         1 FBW      -1.003100
      9 O1           2.5610     1.0710     0.3920 o          1 FBW      -0.540000
     10 O2           2.0410    -1.4310     0.5300 o          1 FBW      -0.540000
     11 F           -3.1980    -1.5040     0.1190 f          1 FBW      -0.172000
     12 H1          -3.8120     1.0480     0.0380 ha         1 FBW       0.136000
     13 H6          -2.1570     2.9170    -0.0560 ha         1 FBW       0.124000
     14 H3          -0.6000    -1.8230     0.0890 ha         1 FBW       0.155000
     15 H5           0.2780     2.4280    -0.0780 ha         1 FBW       0.143000
     16 H21N         2.8840     0.4010    -1.6890 hn         1 FBW       0.475000
     17 H22N         2.5920    -1.1510    -1.5970 hn         1 FBW       0.475000
@<TRIPOS>BOND
     1     1     2 ar  
     2     1     6 ar  
     3     1    12 1   
     4     2     3 ar  
     5     2    11 1   
     6     3     4 ar  
     7     3    14 1   
     8     4     5 ar  
     9     4     7 1   
    10     5     6 ar  
    11     5    15 1   
    12     6    13 1   
    13     7     8 1   
    14     7     9 2   
    15     7    10 2   
    16     8    16 1   
    17     8    17 1   
@<TRIPOS>SUBSTRUCTURE
     1 FBW         1 TEMP              0 ****  ****    0 ROOT
