@<TRIPOS>MOLECULE
FBW
   17    17     1     0     0
SMALL
bcc


@<TRIPOS>ATOM
      1 C1          -2.6610     0.8530    -0.0160 ca         1 FBW      -0.118000
      2 C2          -2.2060    -0.4540    -0.0370 ca         1 FBW       0.119900
      3 C3          -0.8650    -0.7700    -0.0100 ca         1 FBW      -0.066000
      4 C4           0.0390     0.2840     0.0370 ca         1 FBW      -0.242500
      5 C5          -0.3720     1.6060     0.0630 ca         1 FBW      -0.054000
      6 C6          -1.7340     1.8810     0.0340 ca         1 FBW      -0.123000
      7 S            1.7710    -0.0990     0.0770 sy         1 FBW       1.266200
      8 N2           2.0260    -0.5300    -1.4960 n8         1 FBW      -0.892700
      9 O1           2.4840     1.1130     0.4560 o          1 FBW      -0.610800
     10 O2           1.9830    -1.3040     0.8630 o          1 FBW      -0.610800
     11 F           -3.1000    -1.4480    -0.0820 f          1 FBW      -0.136900
     12 H1          -3.7230     1.0600    -0.0360 ha         1 FBW       0.154000
     13 H6          -2.0740     2.9070     0.0530 ha         1 FBW       0.142000
     14 H3          -0.5430    -1.8030    -0.0270 ha         1 FBW       0.173000
     15 H5           0.3440     2.4140     0.1050 ha         1 FBW       0.161000
     16 H21N         2.0280     0.2650    -2.1260 hn         1 FBW       0.419800
     17 H22N         2.8840    -1.0640    -1.6010 hn         1 FBW       0.419800
@<TRIPOS>BOND
     1     1     2 ar  
     2     1     6 ar  
     3     1    12 1   
     4     2     3 ar  
     5     2    11 1   
     6     3     4 ar  
     7     3    14 1   
     8     4     5 ar  
     9     4     7 1   
    10     5     6 ar  
    11     5    15 1   
    12     6    13 1   
    13     7     8 1   
    14     7     9 2   
    15     7    10 2   
    16     8    16 1   
    17     8    17 1   
@<TRIPOS>SUBSTRUCTURE
     1 FBW         1 TEMP              0 ****  ****    0 ROOT
