@<TRIPOS>MOLECULE
FBX
   40    41     1     0     0
SMALL
No Charge or Current Charge


@<TRIPOS>ATOM
      1 C10        165.8090   183.9250   157.9030 ca         1 FBX      -0.165000
      2 C13        166.8540   184.9560   155.9530 ca         1 FBX      -0.227000
      3 C15        166.1530   188.3060   155.0980 ca         1 FBX      -0.072000
      4 C17        165.1870   189.2590   155.4660 ca         1 FBX      -0.150500
      5 C20        164.0800   182.9340   159.5510 c          1 FBX       0.637100
      6 C21        162.4540   181.4960   160.6300 c3         1 FBX       0.185600
      7 C22        163.3540   180.8200   161.6850 c3         1 FBX      -0.125100
      8 C7         168.5350   187.4040   155.1500 c3         1 FBX       0.285100
      9 C8         167.7740   185.6100   156.7780 ca         1 FBX       0.381000
     10 C9         167.4860   188.4380   155.5420 ca         1 FBX      -0.125300
     11 C11        167.7360   185.4090   158.1580 ca         1 FBX      -0.272000
     12 C12        166.7660   184.5770   158.7250 ca         1 FBX       0.350000
     13 C14        165.8800   184.1140   156.5100 ca         1 FBX      -0.019000
     14 C16        167.8410   189.5350   156.3540 ca         1 FBX      -0.072000
     15 C18        166.8730   190.4870   156.7200 ca         1 FBX      -0.150500
     16 C19        165.5500   190.3460   156.2760 ca         1 FBX       0.172000
     17 F1         164.6210   191.2600   156.6290 f          1 FBX      -0.180000
     18 N4         168.7470   186.4480   156.2470 nu         1 FBX      -0.987200
     19 N5         164.7930   183.0280   158.3670 ns         1 FBX      -0.162000
     20 N6         166.8120   184.4030   160.0760 nv         1 FBX      -1.062000
     21 O2         163.2570   181.8410   159.4830 os         1 FBX      -0.473100
     22 O3         164.1440   183.7050   160.4990 o          1 FBX      -0.519000
     23 H1         166.8930   185.0880   154.8760 ha         1 FBX       0.122000
     24 H2         165.8660   187.4640   154.4720 ha         1 FBX       0.119500
     25 H3         164.1600   189.1560   155.1260 ha         1 FBX       0.132500
     26 H4         161.9570   182.3780   161.0560 h1         1 FBX       0.058200
     27 H5         161.6720   180.7850   160.3340 h1         1 FBX       0.058200
     28 H6         162.7460   180.4720   162.5280 hc         1 FBX       0.047367
     29 H7         163.8680   179.9530   161.2540 hc         1 FBX       0.047367
     30 H8         164.1050   181.5160   162.0750 hc         1 FBX       0.047367
     31 H9         168.2190   186.8800   154.2370 h1         1 FBX       0.048200
     32 H10        169.4770   187.9190   154.9160 h1         1 FBX       0.048200
     33 H11        168.4640   185.9040   158.7930 ha         1 FBX       0.108000
     34 H12        165.1730   183.6100   155.8530 ha         1 FBX       0.114000
     35 H13        168.8660   189.6460   156.7040 ha         1 FBX       0.119500
     36 H14        167.1460   191.3320   157.3480 ha         1 FBX       0.132500
     37 H15        169.4420   186.7400   156.9340 hn         1 FBX       0.488000
     38 H16        164.5370   182.3160   157.6940 hn         1 FBX       0.160000
     39 H17        165.9460   184.1090   160.5260 hn         1 FBX       0.449500
     40 H18        167.4040   185.0250   160.6210 hn         1 FBX       0.449500
@<TRIPOS>BOND
     1     1    12 ar  
     2     1    13 ar  
     3     1    19 1   
     4     2     9 ar  
     5     2    13 ar  
     6     2    23 1   
     7     3     4 ar  
     8     3    10 ar  
     9     3    24 1   
    10     4    16 ar  
    11     4    25 1   
    12     5    19 1   
    13     5    21 1   
    14     5    22 2   
    15     6     7 1   
    16     6    21 1   
    17     6    26 1   
    18     6    27 1   
    19     7    28 1   
    20     7    29 1   
    21     7    30 1   
    22     8    10 1   
    23     8    18 1   
    24     8    31 1   
    25     8    32 1   
    26     9    11 ar  
    27     9    18 1   
    28    10    14 ar  
    29    11    12 ar  
    30    11    33 1   
    31    12    20 1   
    32    13    34 1   
    33    14    15 ar  
    34    14    35 1   
    35    15    16 ar  
    36    15    36 1   
    37    16    17 1   
    38    18    37 1   
    39    19    38 1   
    40    20    39 1   
    41    20    40 1   
@<TRIPOS>SUBSTRUCTURE
     1 FBX         1 TEMP              0 ****  ****    0 ROOT
