@<TRIPOS>MOLECULE
FBX
   40    41     1     0     0
SMALL
abcg2


@<TRIPOS>ATOM
      1 C10        165.9270   183.6730   157.9520 ca         1 FBX      -0.165000
      2 C13        166.4210   185.4820   156.4130 ca         1 FBX      -0.227000
      3 C15        166.5660   188.9310   154.4340 ca         1 FBX      -0.072000
      4 C17        165.6180   189.9430   154.5030 ca         1 FBX      -0.150500
      5 C20        164.2000   182.8500   159.4280 c          1 FBX       0.637100
      6 C21        162.5700   181.7650   160.7650 c3         1 FBX       0.185600
      7 C22        163.2640   181.4980   162.0840 c3         1 FBX      -0.125100
      8 C7         168.3310   187.4490   155.4460 c3         1 FBX       0.285100
      9 C8         167.6550   185.6950   157.0480 ca         1 FBX       0.381000
     10 C9         167.2730   188.5260   155.5620 ca         1 FBX      -0.125300
     11 C11        168.0050   184.8810   158.1330 ca         1 FBX      -0.272000
     12 C12        167.1610   183.8750   158.5980 ca         1 FBX       0.350000
     13 C14        165.5870   184.4790   156.8790 ca         1 FBX      -0.019000
     14 C16        167.0080   189.1520   156.7750 ca         1 FBX      -0.072000
     15 C18        166.0620   190.1640   156.8680 ca         1 FBX      -0.150500
     16 C19        165.3840   190.5420   155.7250 ca         1 FBX       0.172000
     17 F1         164.4620   191.5180   155.8070 f          1 FBX      -0.180000
     18 N4         168.5180   186.6680   156.6340 nu         1 FBX      -0.987200
     19 N5         165.0570   182.6510   158.4010 ns         1 FBX      -0.162000
     20 N6         167.5030   183.1220   159.6980 nv         1 FBX      -1.062000
     21 O2         163.4830   181.7480   159.6620 os         1 FBX      -0.473100
     22 O3         164.0930   183.8850   160.0490 o          1 FBX      -0.519000
     23 H1         166.1040   186.0920   155.5790 ha         1 FBX       0.122000
     24 H2         166.7490   188.4480   153.4820 ha         1 FBX       0.119500
     25 H3         165.0660   190.2500   153.6250 ha         1 FBX       0.132500
     26 H4         162.0250   182.7090   160.7930 h1         1 FBX       0.058200
     27 H5         161.8540   180.9750   160.5440 h1         1 FBX       0.058200
     28 H6         162.5200   181.4580   162.8800 hc         1 FBX       0.047367
     29 H7         163.7870   180.5410   162.0690 hc         1 FBX       0.047367
     30 H8         163.9780   182.2810   162.3330 hc         1 FBX       0.047367
     31 H9         168.0990   186.8090   154.5860 h1         1 FBX       0.048200
     32 H10        169.2900   187.9160   155.2180 h1         1 FBX       0.048200
     33 H11        168.9630   185.0320   158.6200 ha         1 FBX       0.108000
     34 H12        164.6310   184.3170   156.3940 ha         1 FBX       0.114000
     35 H13        167.5390   188.8420   157.6660 ha         1 FBX       0.119500
     36 H14        165.8580   190.6490   157.8140 ha         1 FBX       0.132500
     37 H15        169.4160   186.7150   157.0820 hn         1 FBX       0.488000
     38 H16        165.0510   181.7570   157.9320 hn         1 FBX       0.160000
     39 H17        167.0840   182.2080   159.7480 hn         1 FBX       0.449500
     40 H18        168.4860   183.0990   159.9190 hn         1 FBX       0.449500
@<TRIPOS>BOND
     1     1    12 ar  
     2     1    13 ar  
     3     1    19 1   
     4     2     9 ar  
     5     2    13 ar  
     6     2    23 1   
     7     3     4 ar  
     8     3    10 ar  
     9     3    24 1   
    10     4    16 ar  
    11     4    25 1   
    12     5    19 1   
    13     5    21 1   
    14     5    22 2   
    15     6     7 1   
    16     6    21 1   
    17     6    26 1   
    18     6    27 1   
    19     7    28 1   
    20     7    29 1   
    21     7    30 1   
    22     8    10 1   
    23     8    18 1   
    24     8    31 1   
    25     8    32 1   
    26     9    11 ar  
    27     9    18 1   
    28    10    14 ar  
    29    11    12 ar  
    30    11    33 1   
    31    12    20 1   
    32    13    34 1   
    33    14    15 ar  
    34    14    35 1   
    35    15    16 ar  
    36    15    36 1   
    37    16    17 1   
    38    18    37 1   
    39    19    38 1   
    40    20    39 1   
    41    20    40 1   
@<TRIPOS>SUBSTRUCTURE
     1 FBX         1 TEMP              0 ****  ****    0 ROOT
