@<TRIPOS>MOLECULE
FBY
   48    50     1     0     0
SMALL
abcg2


@<TRIPOS>ATOM
      1 C4          -4.3920    -1.2340     0.4390 ca         1 FBY       0.161500
      2 C14          3.5990    -2.4060    -0.5990 c3         1 FBY      -0.100400
      3 C5          -3.1140    -0.7210     0.3510 ca         1 FBY      -0.183500
      4 C6          -2.9310     0.5620    -0.1660 ca         1 FBY       0.344000
      5 C11          4.4160     0.6600     0.5940 c          1 FBY       0.563000
      6 C7          -0.4400     0.7800     0.0210 ca         1 FBY       0.403900
      7 C8           1.0300    -0.7270     0.8240 ca         1 FBY       0.132900
      8 C9           2.0910     0.0960     0.5400 ca         1 FBY      -0.224000
      9 C10          1.7580     1.3600    -0.0060 ca         1 FBY       0.384900
     10 C12          3.9380     2.1120     0.5900 c6         1 FBY       0.152500
     11 N1          -1.7030     1.1880    -0.3070 nu         1 FBY      -0.927900
     12 N2          -0.2420    -0.3980     0.5800 nb         1 FBY      -0.240000
     13 C3          -5.5300    -0.5500     0.0390 ca         1 FBY       0.030100
     14 N3           0.5050     1.6770    -0.2680 nb         1 FBY      -0.300000
     15 C1          -4.0550     1.2840    -0.5810 ca         1 FBY      -0.183500
     16 C2          -5.3050     0.7210    -0.4720 ca         1 FBY       0.161500
     17 F1          -4.5560    -2.4670     0.9380 f          1 FBY      -0.170500
     18 O1          -6.7380    -1.1320     0.1600 oh         1 FBY      -0.508100
     19 F2          -6.3780     1.4240    -0.8730 f          1 FBY      -0.170500
     20 N4           3.4360    -0.2750     0.6650 n          1 FBY      -0.194400
     21 N5           2.7570     2.2350    -0.2690 nh         1 FBY      -0.759300
     22 C15          3.9030    -3.8940    -0.4840 c3         1 FBY      -0.073400
     23 C16          3.7130    -4.6300    -1.8030 c3         1 FBY      -0.088100
     24 C17          2.4220     3.5400    -0.8040 c3         1 FBY       0.204100
     25 C18          5.0640     3.0440     0.1840 c3         1 FBY      -0.089100
     26 O2           5.5990     0.3740     0.5850 o          1 FBY      -0.535000
     27 H1           2.5740    -2.2730    -0.9600 hc         1 FBY       0.051700
     28 H2           4.2530    -1.9480    -1.3460 hc         1 FBY       0.051700
     29 H3          -2.2770    -1.3140     0.6840 ha         1 FBY       0.155000
     30 H4           1.1820    -1.7120     1.2490 h4         1 FBY       0.031100
     31 H5           3.6570     2.3550     1.6270 h1         1 FBY       0.060700
     32 H6           3.1790    -2.1630     1.5100 h1         1 FBY       0.062700
     33 H7           4.8150    -1.7650     1.0620 h1         1 FBY       0.062700
     34 H8          -1.7290     2.1070    -0.7210 hn         1 FBY       0.512000
     35 H9          -3.9590     2.2820    -0.9910 ha         1 FBY       0.155000
     36 H10         -7.4370    -0.5230    -0.1040 ho         1 FBY       0.476000
     37 H11          4.9300    -4.0310    -0.1320 hc         1 FBY       0.038700
     38 H12          3.2580    -4.3380     0.2810 hc         1 FBY       0.038700
     39 H13          2.6850    -4.5460    -2.1570 hc         1 FBY       0.034700
     40 H14          4.3630    -4.2230    -2.5790 hc         1 FBY       0.034700
     41 H15          3.9430    -5.6910    -1.7020 hc         1 FBY       0.034700
     42 H16          2.1640     4.2550    -0.0170 h1         1 FBY       0.049033
     43 H17          3.2600     3.9330    -1.3720 h1         1 FBY       0.049033
     44 H18          1.5750     3.4460    -1.4750 h1         1 FBY       0.049033
     45 H19          5.3830     2.8780    -0.8450 hc         1 FBY       0.056033
     46 H20          4.7650     4.0850     0.2950 hc         1 FBY       0.056033
     47 H21          5.9170     2.8840     0.8370 hc         1 FBY       0.056033
     48 C13          3.7820    -1.6900     0.7320 c3         1 FBY       0.097000
@<TRIPOS>BOND
     1     1     3 ar  
     2     1    13 ar  
     3     1    17 1   
     4     2    22 1   
     5     2    27 1   
     6     2    28 1   
     7     2    48 1   
     8     3     4 ar  
     9     3    29 1   
    10     4    11 1   
    11     4    15 ar  
    12     5    10 1   
    13     5    20 1   
    14     5    26 2   
    15     6    11 1   
    16     6    12 ar  
    17     6    14 ar  
    18     7     8 ar  
    19     7    12 ar  
    20     7    30 1   
    21     8     9 ar  
    22     8    20 1   
    23     9    14 ar  
    24     9    21 1   
    25    10    21 1   
    26    10    25 1   
    27    10    31 1   
    28    11    34 1   
    29    13    16 ar  
    30    13    18 1   
    31    15    16 ar  
    32    15    35 1   
    33    16    19 1   
    34    18    36 1   
    35    20    48 1   
    36    21    24 1   
    37    22    23 1   
    38    22    37 1   
    39    22    38 1   
    40    23    39 1   
    41    23    40 1   
    42    23    41 1   
    43    24    42 1   
    44    24    43 1   
    45    24    44 1   
    46    25    45 1   
    47    25    46 1   
    48    25    47 1   
    49    32    48 1   
    50    33    48 1   
@<TRIPOS>SUBSTRUCTURE
     1 FBY         1 TEMP              0 ****  ****    0 ROOT
