@<TRIPOS>MOLECULE
FBY
   48    50     1     0     0
SMALL
No Charge or Current Charge


@<TRIPOS>ATOM
      1 C4          -4.6630    -0.8640     1.0090 ca         1 FBY       0.161500
      2 C14          3.7510    -2.5080    -0.6660 c3         1 FBY      -0.100400
      3 C5          -3.3710    -0.3330     0.8790 ca         1 FBY      -0.183500
      4 C6          -3.0970     0.6390    -0.0980 ca         1 FBY       0.344000
      5 C11          4.4420     0.6010     0.6540 c          1 FBY       0.563000
      6 C7          -0.5330     0.7710    -0.0100 ca         1 FBY       0.403900
      7 C8           0.9450    -0.8810     0.5460 ca         1 FBY       0.132900
      8 C9           2.0260     0.0070     0.3450 ca         1 FBY      -0.224000
      9 C10          1.6830     1.3430     0.0180 ca         1 FBY       0.384900
     10 C12          3.9790     2.1000     0.6310 c6         1 FBY       0.152500
     11 N1          -1.8290     1.2030    -0.2520 nu         1 FBY      -0.927900
     12 N2          -0.3310    -0.5060     0.3480 nb         1 FBY      -0.240000
     13 C3          -5.7090    -0.4250     0.1690 ca         1 FBY       0.030100
     14 N3           0.4020     1.7100    -0.1800 nb         1 FBY      -0.300000
     15 C1          -4.1350     1.0930    -0.9250 ca         1 FBY      -0.183500
     16 C2          -5.4280     0.5620    -0.7970 ca         1 FBY       0.161500
     17 F1          -4.8970    -1.8000     1.9580 f          1 FBY      -0.170500
     18 O1          -6.9780    -0.9440     0.2950 oh         1 FBY      -0.508100
     19 F2          -6.4090     1.0100    -1.6130 f          1 FBY      -0.170500
     20 N4           3.4020    -0.3670     0.6370 n          1 FBY      -0.194400
     21 N5           2.6790     2.3480    -0.0930 nh         1 FBY      -0.759300
     22 C15          4.1260    -4.0030    -0.5840 c3         1 FBY      -0.073400
     23 C16          4.1060    -4.7050    -1.9560 c3         1 FBY      -0.088100
     24 C17          2.3630     3.7300    -0.5630 c3         1 FBY       0.204100
     25 C18          5.1420     3.0230     0.1400 c3         1 FBY      -0.089100
     26 O2           5.6290     0.2830     0.6910 o          1 FBY      -0.535000
     27 H1           2.7530    -2.4110    -1.1100 hc         1 FBY       0.051700
     28 H2           4.4510    -1.9950    -1.3380 hc         1 FBY       0.051700
     29 H3          -2.5960    -0.6720     1.5560 ha         1 FBY       0.155000
     30 H4           1.0850    -1.9140     0.8560 h4         1 FBY       0.031100
     31 H5           3.8160     2.3420     1.6910 h1         1 FBY       0.060700
     32 H6           3.0890    -2.3190     1.3960 h1         1 FBY       0.062700
     33 H7           4.7720    -1.9180     1.1490 h1         1 FBY       0.062700
     34 H8          -1.8410     2.1110    -0.7160 hn         1 FBY       0.512000
     35 H9          -3.9430     1.8500    -1.6780 ha         1 FBY       0.155000
     36 H10         -7.5630    -0.5160    -0.3690 ho         1 FBY       0.476000
     37 H11          5.1280    -4.1040    -0.1470 hc         1 FBY       0.038700
     38 H12          3.4290    -4.5170     0.0900 hc         1 FBY       0.038700
     39 H13          3.1060    -4.6520    -2.4040 hc         1 FBY       0.034700
     40 H14          4.8200    -4.2360    -2.6430 hc         1 FBY       0.034700
     41 H15          4.3780    -5.7620    -1.8480 hc         1 FBY       0.034700
     42 H16          2.2830     4.4180     0.2880 h1         1 FBY       0.049033
     43 H17          3.1410     4.0980    -1.2440 h1         1 FBY       0.049033
     44 H18          1.4230     3.7700    -1.1280 h1         1 FBY       0.049033
     45 H19          5.3610     2.8550    -0.9210 hc         1 FBY       0.056033
     46 H20          4.9070     4.0840     0.2780 hc         1 FBY       0.056033
     47 H21          6.0640     2.8390     0.7040 hc         1 FBY       0.056033
     48 C13          3.7730    -1.8060     0.7100 c3         1 FBY       0.097000
@<TRIPOS>BOND
     1     1     3 ar  
     2     1    13 ar  
     3     1    17 1   
     4     2    22 1   
     5     2    27 1   
     6     2    28 1   
     7     2    48 1   
     8     3     4 ar  
     9     3    29 1   
    10     4    11 1   
    11     4    15 ar  
    12     5    10 1   
    13     5    20 1   
    14     5    26 2   
    15     6    11 1   
    16     6    12 ar  
    17     6    14 ar  
    18     7     8 ar  
    19     7    12 ar  
    20     7    30 1   
    21     8     9 ar  
    22     8    20 1   
    23     9    14 ar  
    24     9    21 1   
    25    10    21 1   
    26    10    25 1   
    27    10    31 1   
    28    11    34 1   
    29    13    16 ar  
    30    13    18 1   
    31    15    16 ar  
    32    15    35 1   
    33    16    19 1   
    34    18    36 1   
    35    20    48 1   
    36    21    24 1   
    37    22    23 1   
    38    22    37 1   
    39    22    38 1   
    40    23    39 1   
    41    23    40 1   
    42    23    41 1   
    43    24    42 1   
    44    24    43 1   
    45    24    44 1   
    46    25    45 1   
    47    25    46 1   
    48    25    47 1   
    49    32    48 1   
    50    33    48 1   
@<TRIPOS>SUBSTRUCTURE
     1 FBY         1 TEMP              0 ****  ****    0 ROOT
