@<TRIPOS>MOLECULE
FBZ
   23    23     1     0     0
SMALL
No Charge or Current Charge


@<TRIPOS>ATOM
      1 CAA          0.8290    -0.8130    -1.7550 c3         1 FBZ      -0.070100
      2 OAB          3.2360    -0.5240     1.3840 o          1 FBZ      -0.740000
      3 OAC          3.6100     0.4680    -0.4890 o          1 FBZ      -0.740000
      4 CAD         -3.7320     0.3550     0.2490 ca         1 FBZ      -0.139000
      5 CAE         -3.1710    -0.7800     0.8560 ca         1 FBZ      -0.121500
      6 CAF         -2.9260     1.2040    -0.5260 ca         1 FBZ      -0.121500
      7 CAG         -1.8050    -1.0670     0.6880 ca         1 FBZ      -0.113000
      8 CAH         -1.5600     0.9180    -0.6940 ca         1 FBZ      -0.113000
      9 CAI          1.3920     0.5690     0.3640 c3         1 FBZ      -0.202400
     10 CAJ          2.8700     0.1420     0.4270 c          1 FBZ       0.716000
     11 CAK         -0.9860    -0.2200    -0.0880 ca         1 FBZ      -0.040300
     12 CAL          0.5020    -0.5410    -0.2670 c3         1 FBZ      -0.010400
     13 HAA          1.8510    -1.1920    -1.8710 hc         1 FBZ       0.025033
     14 HAAA         0.1460    -1.5680    -2.1640 hc         1 FBZ       0.025033
     15 HAAB         0.7300     0.0990    -2.3570 hc         1 FBZ       0.025033
     16 HAD         -4.7890     0.5760     0.3790 ha         1 FBZ       0.092000
     17 HAE         -3.7940    -1.4390     1.4570 ha         1 FBZ       0.094000
     18 HAF         -3.3580     2.0840    -0.9960 ha         1 FBZ       0.094000
     19 HAG         -1.3840    -1.9490     1.1640 ha         1 FBZ       0.113000
     20 HAH         -0.9470     1.5850    -1.2960 ha         1 FBZ       0.113000
     21 HAI          1.0060     0.6940     1.3830 hc         1 FBZ       0.021700
     22 HAIA         1.2770     1.4650    -0.2580 hc         1 FBZ       0.021700
     23 HAL          0.7210    -1.4710     0.2730 hc         1 FBZ       0.070700
@<TRIPOS>BOND
     1     1    12 1   
     2     1    13 1   
     3     1    14 1   
     4     1    15 1   
     5     2    10 1   
     6     3    10 1   
     7     4     5 ar  
     8     4     6 ar  
     9     4    16 1   
    10     5     7 ar  
    11     5    17 1   
    12     6     8 ar  
    13     6    18 1   
    14     7    11 ar  
    15     7    19 1   
    16     8    11 ar  
    17     8    20 1   
    18     9    10 1   
    19     9    12 1   
    20     9    21 1   
    21     9    22 1   
    22    11    12 1   
    23    12    23 1   
@<TRIPOS>SUBSTRUCTURE
     1 FBZ         1 TEMP              0 ****  ****    0 ROOT
