@<TRIPOS>MOLECULE
FBZ
   23    23     1     0     0
SMALL
abcg2


@<TRIPOS>ATOM
      1 CAA          0.7800    -0.9860    -1.6680 c3         1 FBZ      -0.070100
      2 OAB          3.1680    -0.9520     0.6370 o          1 FBZ      -0.740000
      3 OAC          3.6830     1.1770     0.2430 o          1 FBZ      -0.740000
      4 CAD         -3.7060     0.3820     0.2490 ca         1 FBZ      -0.139000
      5 CAE         -3.1630    -0.7390     0.8610 ca         1 FBZ      -0.121500
      6 CAF         -2.8870     1.1990    -0.5210 ca         1 FBZ      -0.121500
      7 CAG         -1.8150    -1.0360     0.7030 ca         1 FBZ      -0.113000
      8 CAH         -1.5420     0.8960    -0.6760 ca         1 FBZ      -0.113000
      9 CAI          1.3860     0.5850     0.2130 c3         1 FBZ      -0.202400
     10 CAJ          2.8780     0.2310     0.3650 c          1 FBZ       0.716000
     11 CAK         -0.9810    -0.2260    -0.0640 ca         1 FBZ      -0.040300
     12 CAL          0.4820    -0.5660    -0.2290 c3         1 FBZ      -0.010400
     13 HAA          1.8180    -1.3010    -1.7710 hc         1 FBZ       0.025033
     14 HAAA         0.1460    -1.8170    -1.9830 hc         1 FBZ       0.025033
     15 HAAB         0.6110    -0.1600    -2.3630 hc         1 FBZ       0.025033
     16 HAD         -4.7550     0.6190     0.3720 ha         1 FBZ       0.092000
     17 HAE         -3.7890    -1.3850     1.4650 ha         1 FBZ       0.094000
     18 HAF         -3.2990     2.0770    -1.0030 ha         1 FBZ       0.094000
     19 HAG         -1.4030    -1.9160     1.1840 ha         1 FBZ       0.113000
     20 HAH         -0.9230     1.5470    -1.2830 ha         1 FBZ       0.113000
     21 HAI          1.0430     0.9540     1.1880 hc         1 FBZ       0.021700
     22 HAIA         1.2880     1.4300    -0.4740 hc         1 FBZ       0.021700
     23 HAL          0.6970    -1.4190     0.4190 hc         1 FBZ       0.070700
@<TRIPOS>BOND
     1     1    12 1   
     2     1    13 1   
     3     1    14 1   
     4     1    15 1   
     5     2    10 1   
     6     3    10 1   
     7     4     5 ar  
     8     4     6 ar  
     9     4    16 1   
    10     5     7 ar  
    11     5    17 1   
    12     6     8 ar  
    13     6    18 1   
    14     7    11 ar  
    15     7    19 1   
    16     8    11 ar  
    17     8    20 1   
    18     9    10 1   
    19     9    12 1   
    20     9    21 1   
    21     9    22 1   
    22    11    12 1   
    23    12    23 1   
@<TRIPOS>SUBSTRUCTURE
     1 FBZ         1 TEMP              0 ****  ****    0 ROOT
