@<TRIPOS>MOLECULE
FC0
   24    24     1     0     0
SMALL
abcg2


@<TRIPOS>ATOM
      1 CD1         -2.1970     0.2200    -1.1740 ca         1 FC0      -0.106500
      2 CE1         -3.4570     0.7280    -0.8830 ca         1 FC0      -0.126000
      3 CZ          -4.1420     0.2930     0.2440 ca         1 FC0      -0.158000
      4 CE2         -3.5580    -0.6550     1.0740 ca         1 FC0      -0.126000
      5 CD2         -2.3000    -1.1600     0.7770 ca         1 FC0      -0.106500
      6 CG          -1.5990    -0.7320    -0.3500 ca         1 FC0      -0.003300
      7 CB          -0.2260    -1.2660    -0.6360 c3         1 FC0      -0.043100
      8 CA           0.8770    -0.5180     0.1290 c3         1 FC0      -0.012300
      9 C            2.2190    -1.2590    -0.0840 c          1 FC0       0.711000
     10 O            3.0150    -0.7850    -0.9160 o          1 FC0      -0.756500
     11 OXT          2.3720    -2.3090     0.5770 o          1 FC0      -0.756500
     12 N            0.8870     0.8640    -0.2650 ns         1 FC0      -0.518900
     13 C1           1.7720     1.7550     0.3670 c          1 FC0       0.737000
     14 O1           2.1750     1.4450     1.5090 o          1 FC0      -0.775000
     15 OX0          2.0360     2.8070    -0.2590 o          1 FC0      -0.775000
     16 HD1         -1.6750     0.5630    -2.0590 ha         1 FC0       0.113000
     17 HE1         -3.9050     1.4640    -1.5380 ha         1 FC0       0.080500
     18 HZ          -5.1250     0.6870     0.4710 ha         1 FC0       0.075000
     19 HE2         -4.0860    -1.0070     1.9520 ha         1 FC0       0.080500
     20 HD2         -1.8530    -1.9030     1.4290 ha         1 FC0       0.113000
     21 HB1         -0.1770    -2.3210    -0.3610 hc         1 FC0       0.034700
     22 HB2         -0.0220    -1.2110    -1.7110 hc         1 FC0       0.034700
     23 HA           0.6310    -0.5770     1.1930 h1         1 FC0       0.053700
     24 H            0.8570     0.9970    -1.2640 hn         1 FC0       0.229500
@<TRIPOS>BOND
     1     1     2 ar  
     2     1     6 ar  
     3     1    16 1   
     4     2     3 ar  
     5     2    17 1   
     6     3     4 ar  
     7     3    18 1   
     8     4     5 ar  
     9     4    19 1   
    10     5     6 ar  
    11     5    20 1   
    12     6     7 1   
    13     7     8 1   
    14     7    21 1   
    15     7    22 1   
    16     8     9 1   
    17     8    12 1   
    18     8    23 1   
    19     9    10 1   
    20     9    11 1   
    21    12    13 1   
    22    12    24 1   
    23    13    14 1   
    24    13    15 1   
@<TRIPOS>SUBSTRUCTURE
     1 FC0         1 TEMP              0 ****  ****    0 ROOT
