@<TRIPOS>MOLECULE
FC0
   24    24     1     0     0
SMALL
No Charge or Current Charge


@<TRIPOS>ATOM
      1 CD1         -2.1060     0.2640    -1.2040 ca         1 FC0      -0.106500
      2 CE1         -3.3390     0.8460    -0.8630 ca         1 FC0      -0.126000
      3 CZ          -3.9820     0.4810     0.3320 ca         1 FC0      -0.158000
      4 CE2         -3.3910    -0.4640     1.1860 ca         1 FC0      -0.126000
      5 CD2         -2.1560    -1.0450     0.8450 ca         1 FC0      -0.106500
      6 CG          -1.5060    -0.6840    -0.3510 ca         1 FC0      -0.003300
      7 CB          -0.1760    -1.3320    -0.7270 c3         1 FC0      -0.043100
      8 CA           1.0450    -0.7270     0.0150 c3         1 FC0      -0.012300
      9 C            2.3540    -1.5270    -0.2930 c          1 FC0       0.711000
     10 O            2.7600    -1.5820    -1.4470 o          1 FC0      -0.756500
     11 OXT          2.9510    -2.0450     0.6430 o          1 FC0      -0.756500
     12 N            1.2250     0.7180    -0.2960 ns         1 FC0      -0.518900
     13 C1           0.9210     1.7720     0.5230 c          1 FC0       0.737000
     14 O1           0.5070     1.5650     1.6490 o          1 FC0      -0.775000
     15 OX0          1.1280     2.8810     0.0720 o          1 FC0      -0.775000
     16 HD1         -1.6140     0.5520    -2.1300 ha         1 FC0       0.113000
     17 HE1         -3.7960     1.5780    -1.5240 ha         1 FC0       0.080500
     18 HZ          -4.9370     0.9300     0.5950 ha         1 FC0       0.075000
     19 HE2         -3.8870    -0.7470     2.1110 ha         1 FC0       0.080500
     20 HD2         -1.7040    -1.7770     1.5100 ha         1 FC0       0.113000
     21 HB1         -0.2210    -2.4050    -0.5050 hc         1 FC0       0.034700
     22 HB2         -0.0130    -1.2570    -1.8090 hc         1 FC0       0.034700
     23 HA           0.8640    -0.8360     1.0920 h1         1 FC0       0.053700
     24 H            1.5940     0.9610    -1.2040 hn         1 FC0       0.229500
@<TRIPOS>BOND
     1     1     2 ar  
     2     1     6 ar  
     3     1    16 1   
     4     2     3 ar  
     5     2    17 1   
     6     3     4 ar  
     7     3    18 1   
     8     4     5 ar  
     9     4    19 1   
    10     5     6 ar  
    11     5    20 1   
    12     6     7 1   
    13     7     8 1   
    14     7    21 1   
    15     7    22 1   
    16     8     9 1   
    17     8    12 1   
    18     8    23 1   
    19     9    10 1   
    20     9    11 1   
    21    12    13 1   
    22    12    24 1   
    23    13    14 1   
    24    13    15 1   
@<TRIPOS>SUBSTRUCTURE
     1 FC0         1 TEMP              0 ****  ****    0 ROOT
