@<TRIPOS>MOLECULE
FC1
   35    36     1     0     0
SMALL
No Charge or Current Charge


@<TRIPOS>ATOM
      1 O6         -16.6740    70.1710   -22.8320 os         1 FC1      -0.336100
      2 S7         -16.8650    68.7150   -27.1730 ss         1 FC1      -0.087600
      3 C8         -18.1410    71.1090   -27.3350 ca         1 FC1      -0.106000
      4 C9         -18.5600    72.6860   -25.5470 ca         1 FC1      -0.129000
      5 C5         -16.1340    68.4850   -24.4240 cc         1 FC1      -0.462200
      6 C1         -17.3740    70.5850   -25.0800 ca         1 FC1      -0.094800
      7 C2         -16.7030    69.6960   -24.1250 cd         1 FC1       0.265900
      8 C3         -17.4920    70.2340   -26.4420 ca         1 FC1      -0.064000
      9 C4         -17.9160    71.8230   -24.6470 ca         1 FC1      -0.049000
     10 C10        -16.0980    67.8610   -25.7460 c          1 FC1       0.632900
     11 C17        -16.8820    73.2740   -21.0490 c3         1 FC1       0.148600
     12 C18        -14.4720    73.6480   -21.3010 c3         1 FC1       0.148600
     13 N16        -15.5590    72.6450   -21.2750 n3         1 FC1      -0.710600
     14 C11        -16.0350    69.4630   -21.7540 c3         1 FC1       0.174600
     15 C12        -18.6740    72.3290   -26.8950 ca         1 FC1      -0.074000
     16 O13        -15.5590    66.7730   -25.8950 o          1 FC1      -0.522100
     17 C14        -16.1880    70.2810   -20.4520 c3         1 FC1      -0.076400
     18 C15        -15.2640    71.5210   -20.3490 c3         1 FC1       0.165800
     19 H8         -18.2330    70.8390   -28.3850 ha         1 FC1       0.130000
     20 H9         -18.9690    73.6310   -25.1970 ha         1 FC1       0.119000
     21 H5         -15.6500    67.8710   -23.6780 ha         1 FC1       0.209000
     22 H4         -17.8410    72.1310   -23.6080 ha         1 FC1       0.134000
     23 H171       -17.6970    72.5490   -21.1740 h1         1 FC1       0.031533
     24 H172       -17.0520    74.0850   -21.7690 h1         1 FC1       0.031533
     25 H173       -16.9480    73.6960   -20.0370 h1         1 FC1       0.031533
     26 H181       -13.5140    73.1760   -21.5570 h1         1 FC1       0.031533
     27 H182       -14.3650    74.1350   -20.3220 h1         1 FC1       0.031533
     28 H183       -14.6760    74.4240   -22.0510 h1         1 FC1       0.031533
     29 H111       -14.9690    69.3030   -21.9620 h1         1 FC1       0.047700
     30 H112       -16.5120    68.4840   -21.6110 h1         1 FC1       0.047700
     31 H12        -19.1730    72.9940   -27.5970 ha         1 FC1       0.119000
     32 H141       -15.9350    69.6160   -19.6180 hc         1 FC1       0.056700
     33 H142       -17.2370    70.5570   -20.3040 hc         1 FC1       0.056700
     34 H151       -15.3080    71.8890   -19.3140 h1         1 FC1       0.032700
     35 H152       -14.2340    71.1750   -20.5110 h1         1 FC1       0.032700
@<TRIPOS>BOND
     1     1     7 1   
     2     1    14 1   
     3     2     8 1   
     4     2    10 1   
     5     3     8 ar  
     6     3    15 ar  
     7     3    19 1   
     8     4     9 ar  
     9     4    15 ar  
    10     4    20 1   
    11     5     7 2   
    12     5    10 1   
    13     5    21 1   
    14     6     7 1   
    15     6     8 ar  
    16     6     9 ar  
    17     9    22 1   
    18    10    16 2   
    19    11    13 1   
    20    11    23 1   
    21    11    24 1   
    22    11    25 1   
    23    12    13 1   
    24    12    26 1   
    25    12    27 1   
    26    12    28 1   
    27    13    18 1   
    28    14    17 1   
    29    14    29 1   
    30    14    30 1   
    31    15    31 1   
    32    17    18 1   
    33    17    32 1   
    34    17    33 1   
    35    18    34 1   
    36    18    35 1   
@<TRIPOS>SUBSTRUCTURE
     1 FC1         1 TEMP              0 ****  ****    0 ROOT
