@<TRIPOS>MOLECULE
FC1
   35    36     1     0     0
SMALL
abcg2


@<TRIPOS>ATOM
      1 O6         -16.7850    70.2220   -22.8400 os         1 FC1      -0.336100
      2 S7         -16.7300    68.8410   -27.0900 ss         1 FC1      -0.087600
      3 C8         -18.1800    71.0880   -27.3010 ca         1 FC1      -0.106000
      4 C9         -18.7440    72.5810   -25.4990 ca         1 FC1      -0.129000
      5 C5         -16.0500    68.6040   -24.4060 cc         1 FC1      -0.462200
      6 C1         -17.4290    70.5920   -25.0430 ca         1 FC1      -0.094800
      7 C2         -16.7200    69.7510   -24.0850 cd         1 FC1       0.265900
      8 C3         -17.4910    70.2610   -26.4070 ca         1 FC1      -0.064000
      9 C4         -18.0680    71.7670   -24.6110 ca         1 FC1      -0.049000
     10 C10        -15.9350    68.0310   -25.7100 c          1 FC1       0.632900
     11 C17        -16.7190    73.2780   -21.2170 c3         1 FC1       0.148600
     12 C18        -14.3350    73.4880   -21.2290 c3         1 FC1       0.148600
     13 N16        -15.4550    72.5620   -21.3190 n3         1 FC1      -0.710600
     14 C11        -16.1060    69.5390   -21.7660 c3         1 FC1       0.174600
     15 C12        -18.8020    72.2380   -26.8510 ca         1 FC1      -0.074000
     16 O13        -15.3210    66.9990   -25.9660 o          1 FC1      -0.522100
     17 C14        -16.2860    70.3310   -20.4860 c3         1 FC1      -0.076400
     18 C15        -15.3330    71.5110   -20.3140 c3         1 FC1       0.165800
     19 H8         -18.2210    70.8200   -28.3500 ha         1 FC1       0.130000
     20 H9         -19.2270    73.4820   -25.1440 ha         1 FC1       0.119000
     21 H5         -15.5460    68.0370   -23.6370 ha         1 FC1       0.209000
     22 H4         -18.0210    72.0290   -23.5660 ha         1 FC1       0.134000
     23 H171       -17.5580    72.5970   -21.3500 h1         1 FC1       0.031533
     24 H172       -16.7710    74.0380   -21.9980 h1         1 FC1       0.031533
     25 H173       -16.8340    73.7800   -20.2400 h1         1 FC1       0.031533
     26 H181       -13.3960    72.9490   -21.3610 h1         1 FC1       0.031533
     27 H182       -14.2970    74.0110   -20.2570 h1         1 FC1       0.031533
     28 H183       -14.4160    74.2420   -22.0140 h1         1 FC1       0.031533
     29 H111       -15.0480    69.4390   -22.0210 h1         1 FC1       0.047700
     30 H112       -16.5410    68.5410   -21.6700 h1         1 FC1       0.047700
     31 H12        -19.3310    72.8700   -27.5530 ha         1 FC1       0.119000
     32 H141       -16.0990    69.6430   -19.6570 hc         1 FC1       0.056700
     33 H142       -17.3310    70.6370   -20.3980 hc         1 FC1       0.056700
     34 H151       -15.4690    71.9250   -19.2980 h1         1 FC1       0.032700
     35 H152       -14.3090    71.1310   -20.3620 h1         1 FC1       0.032700
@<TRIPOS>BOND
     1     1     7 1   
     2     1    14 1   
     3     2     8 1   
     4     2    10 1   
     5     3     8 ar  
     6     3    15 ar  
     7     3    19 1   
     8     4     9 ar  
     9     4    15 ar  
    10     4    20 1   
    11     5     7 2   
    12     5    10 1   
    13     5    21 1   
    14     6     7 1   
    15     6     8 ar  
    16     6     9 ar  
    17     9    22 1   
    18    10    16 2   
    19    11    13 1   
    20    11    23 1   
    21    11    24 1   
    22    11    25 1   
    23    12    13 1   
    24    12    26 1   
    25    12    27 1   
    26    12    28 1   
    27    13    18 1   
    28    14    17 1   
    29    14    29 1   
    30    14    30 1   
    31    15    31 1   
    32    17    18 1   
    33    17    32 1   
    34    17    33 1   
    35    18    34 1   
    36    18    35 1   
@<TRIPOS>SUBSTRUCTURE
     1 FC1         1 TEMP              0 ****  ****    0 ROOT
