@<TRIPOS>MOLECULE
FC2
   21    22     1     0     0
SMALL
No Charge or Current Charge


@<TRIPOS>ATOM
      1 OA           1.5170     0.6270    -0.2800 os         1 FC2      -0.211000
      2 CA           2.7900     0.3570     0.1940 cc         1 FC2       0.145500
      3 C            4.0050     1.1560    -0.1860 c          1 FC2       0.627500
      4 OXT          3.8780     2.0970    -0.9600 o          1 FC2      -0.692000
      5 CB           2.7440    -0.7220     1.0510 cd         1 FC2      -0.230000
      6 CG           1.4020    -1.1550     1.1130 cd         1 FC2      -0.141000
      7 CD           0.7040    -0.3340     0.2710 cc         1 FC2       0.086500
      8 OB           5.0920     0.8480     0.2880 o          1 FC2      -0.692000
      9 C1          -0.7460    -0.3410     0.0780 ca         1 FC2      -0.043500
     10 C2          -1.4730    -1.5260    -0.1930 ca         1 FC2       0.111000
     11 C3          -2.8680    -1.4760    -0.3660 ca         1 FC2      -0.105000
     12 C4          -3.5510    -0.2510    -0.2780 ca         1 FC2      -0.125000
     13 C5          -2.8340     0.9280    -0.0220 ca         1 FC2       0.120000
     14 C6          -1.4420     0.8840     0.1510 ca         1 FC2      -0.087000
     15 Cl1         -0.6740    -3.0890    -0.3740 cl         1 FC2      -0.209000
     16 Cl2         -3.6840     2.4640     0.0810 cl         1 FC2      -0.216000
     17 HB           3.5880    -1.1470     1.5850 ha         1 FC2       0.141000
     18 HG           1.0020    -1.9650     1.7150 ha         1 FC2       0.122000
     19 H3          -3.4200    -2.3890    -0.5780 ha         1 FC2       0.118000
     20 H4          -4.6290    -0.2140    -0.4130 ha         1 FC2       0.119000
     21 H6          -0.9010     1.8060     0.3500 ha         1 FC2       0.162000
@<TRIPOS>BOND
     1     1     2 1   
     2     1     7 1   
     3     2     3 1   
     4     2     5 2   
     5     3     4 1   
     6     3     8 1   
     7     5     6 1   
     8     5    17 1   
     9     6     7 2   
    10     6    18 1   
    11     7     9 1   
    12     9    10 ar  
    13     9    14 ar  
    14    10    11 ar  
    15    10    15 1   
    16    11    12 ar  
    17    11    19 1   
    18    12    13 ar  
    19    12    20 1   
    20    13    14 ar  
    21    13    16 1   
    22    14    21 1   
@<TRIPOS>SUBSTRUCTURE
     1 FC2         1 TEMP              0 ****  ****    0 ROOT
