@<TRIPOS>MOLECULE
FC2
   21    22     1     0     0
SMALL
abcg2


@<TRIPOS>ATOM
      1 OA           1.4280     0.5640    -0.0080 os         1 FC2      -0.211000
      2 CA           2.7240     0.3590     0.3060 cc         1 FC2       0.145500
      3 C            3.7250     1.4310    -0.0130 c          1 FC2       0.627500
      4 OXT          3.2860     2.4660    -0.5410 o          1 FC2      -0.692000
      5 CB           2.8550    -0.8670     0.8790 cd         1 FC2      -0.230000
      6 CG           1.5600    -1.4450     0.9120 cd         1 FC2      -0.141000
      7 CD           0.7170    -0.5260     0.3530 cc         1 FC2       0.086500
      8 OB           4.8980     1.1540     0.2970 o          1 FC2      -0.692000
      9 C1          -0.7190    -0.4390     0.1270 ca         1 FC2      -0.043500
     10 C2          -1.5730    -1.5430     0.0240 ca         1 FC2       0.111000
     11 C3          -2.9340    -1.3890    -0.1900 ca         1 FC2      -0.105000
     12 C4          -3.4900    -0.1290    -0.3150 ca         1 FC2      -0.125000
     13 C5          -2.6550     0.9730    -0.2240 ca         1 FC2       0.120000
     14 C6          -1.2990     0.8300    -0.0050 ca         1 FC2      -0.087000
     15 CL1         -0.9740    -3.1630     0.1170 cl         1 FC2      -0.209000
     16 CL2         -3.3220     2.5620    -0.3750 cl         1 FC2      -0.216000
     17 HB           3.7710    -1.3100     1.2350 ha         1 FC2       0.141000
     18 HG           1.3010    -2.4050     1.3210 ha         1 FC2       0.122000
     19 H3          -3.5680    -2.2610    -0.2690 ha         1 FC2       0.118000
     20 H4          -4.5520    -0.0160    -0.4800 ha         1 FC2       0.119000
     21 H6          -0.6800     1.7130     0.0760 ha         1 FC2       0.162000
@<TRIPOS>BOND
     1     1     2 1   
     2     1     7 1   
     3     2     3 1   
     4     2     5 2   
     5     3     4 1   
     6     3     8 1   
     7     5     6 1   
     8     5    17 1   
     9     6     7 2   
    10     6    18 1   
    11     7     9 1   
    12     9    10 ar  
    13     9    14 ar  
    14    10    11 ar  
    15    10    15 1   
    16    11    12 ar  
    17    11    19 1   
    18    12    13 ar  
    19    12    20 1   
    20    13    14 ar  
    21    13    16 1   
    22    14    21 1   
@<TRIPOS>SUBSTRUCTURE
     1 FC2         1 TEMP              0 ****  ****    0 ROOT
