@<TRIPOS>MOLECULE
FC4
   48    50     1     0     0
SMALL
abcg2


@<TRIPOS>ATOM
      1 C16          5.6190     1.1150     0.2340 ca         1 FC4      -0.060500
      2 C17          5.9190     2.4550     0.0570 ca         1 FC4      -0.112500
      3 C18          5.0190     3.2650    -0.6190 ca         1 FC4       0.139000
      4 CL           5.3890     4.9350    -0.8610 cl         1 FC4      -0.189000
      5 C19          3.8210     2.7630    -1.1000 ca         1 FC4      -0.112500
      6 C20          3.5240     1.4260    -0.9040 ca         1 FC4      -0.060500
      7 C15          4.4270     0.5850    -0.2550 ca         1 FC4      -0.075800
      8 C13          4.0710    -0.8300    -0.0690 cc         1 FC4       0.316400
      9 N4           2.7660    -1.0580     0.1750 nc         1 FC4      -0.693300
     10 C12          4.9730    -1.8660    -0.2010 cd         1 FC4      -0.172900
     11 C14          6.3160    -1.6960    -0.6150 ch         1 FC4       0.306700
     12 N5           7.4090    -1.5950    -0.9710 n1         1 FC4      -0.440000
     13 C11          4.5510    -3.2330     0.0110 c          1 FC4       0.577200
     14 O4           5.2590    -4.2150    -0.0650 o          1 FC4      -0.505000
     15 N3           3.1970    -3.3400     0.2990 ns         1 FC4      -0.393400
     16 C10          2.3640    -2.2820     0.3360 cd         1 FC4       0.522800
     17 S2           0.6860    -2.6720     0.5810 ss         1 FC4      -0.143200
     18 C9           0.2760    -0.3790     2.0950 c3         1 FC4      -0.085100
     19 C8          -0.0140    -0.9970     0.7330 c3         1 FC4      -0.032700
     20 C7          -1.5060    -1.1840     0.5220 c          1 FC4       0.618100
     21 N2          -2.1440    -0.0450     0.1660 ns         1 FC4      -0.136000
     22 C6          -5.8260    -0.4530    -0.0060 ca         1 FC4       0.022500
     23 C5          -4.4980    -0.7870     0.1850 ca         1 FC4      -0.174000
     24 C4          -3.5070     0.1780    -0.0170 ca         1 FC4       0.031000
     25 O3          -2.0400    -2.2600     0.7080 o          1 FC4      -0.552100
     26 C3          -3.8760     1.4620    -0.4260 ca         1 FC4      -0.174000
     27 C2          -5.2020     1.7910    -0.6190 ca         1 FC4       0.022500
     28 C1          -6.1780     0.8300    -0.4010 ca         1 FC4      -0.304500
     29 S1          -7.8810     1.2180    -0.6450 sy         1 FC4       1.135600
     30 O2          -7.9520     2.5310    -1.2720 o          1 FC4      -0.544000
     31 O1          -8.5500     0.1040    -1.3020 o          1 FC4      -0.544000
     32 N1          -8.4400     1.2190     0.9100 n8         1 FC4      -1.010100
     33 H1           6.3150     0.5010     0.7900 ha         1 FC4       0.128500
     34 H2           6.8410     2.8610     0.4490 ha         1 FC4       0.135000
     35 H3           3.1230     3.4030    -1.6210 ha         1 FC4       0.135000
     36 H4           2.5860     1.0340    -1.2750 ha         1 FC4       0.128500
     37 H5           2.8380    -4.2780     0.4440 hn         1 FC4       0.348500
     38 H6          -0.1260     0.6350     2.1420 hc         1 FC4       0.058700
     39 H7          -0.1670    -0.9650     2.8990 hc         1 FC4       0.058700
     40 H8           1.3490    -0.3110     2.2600 hc         1 FC4       0.058700
     41 H9           0.4180    -0.3810    -0.0570 h1         1 FC4       0.108700
     42 H10         -1.5620     0.7690     0.0330 hn         1 FC4       0.159000
     43 H11         -6.5820    -1.2090     0.1610 ha         1 FC4       0.141000
     44 H12         -4.2520    -1.7900     0.4880 ha         1 FC4       0.135000
     45 H13         -3.1160     2.2170    -0.5880 ha         1 FC4       0.135000
     46 H14         -5.4630     2.7920    -0.9360 ha         1 FC4       0.141000
     47 H15         -8.1410     2.0310     1.4390 hn         1 FC4       0.475000
     48 H16         -9.4490     1.1120     0.9460 hn         1 FC4       0.475000
@<TRIPOS>BOND
     1     1     2 ar  
     2     1     7 ar  
     3     1    33 1   
     4     2     3 ar  
     5     2    34 1   
     6     3     4 1   
     7     3     5 ar  
     8     5     6 ar  
     9     5    35 1   
    10     6     7 ar  
    11     6    36 1   
    12     7     8 1   
    13     8     9 1   
    14     8    10 2   
    15     9    16 2   
    16    10    11 1   
    17    10    13 1   
    18    11    12 3   
    19    13    14 2   
    20    13    15 1   
    21    15    16 1   
    22    15    37 1   
    23    16    17 1   
    24    17    19 1   
    25    18    19 1   
    26    18    38 1   
    27    18    39 1   
    28    18    40 1   
    29    19    20 1   
    30    19    41 1   
    31    20    21 1   
    32    20    25 2   
    33    21    24 1   
    34    21    42 1   
    35    22    23 ar  
    36    22    28 ar  
    37    22    43 1   
    38    23    24 ar  
    39    23    44 1   
    40    24    26 ar  
    41    26    27 ar  
    42    26    45 1   
    43    27    28 ar  
    44    27    46 1   
    45    28    29 1   
    46    29    30 2   
    47    29    31 2   
    48    29    32 1   
    49    32    47 1   
    50    32    48 1   
@<TRIPOS>SUBSTRUCTURE
     1 FC4         1 TEMP              0 ****  ****    0 ROOT
