@<TRIPOS>MOLECULE
FC4
   48    50     1     0     0
SMALL
No Charge or Current Charge


@<TRIPOS>ATOM
      1 C16          5.4400     1.1920     0.4070 ca         1 FC4      -0.060500
      2 C17          5.7770     2.5570     0.3740 ca         1 FC4      -0.112500
      3 C18          5.0180     3.4490    -0.3980 ca         1 FC4       0.139000
      4 Cl           5.4390     5.1560    -0.4360 cl         1 FC4      -0.189000
      5 C19          3.9150     2.9830    -1.1300 ca         1 FC4      -0.112500
      6 C20          3.5770     1.6180    -1.0970 ca         1 FC4      -0.060500
      7 C15          4.3500     0.7060    -0.3480 ca         1 FC4      -0.075800
      8 C13          3.9560    -0.7080    -0.2930 cc         1 FC4       0.316400
      9 N4           2.6560    -1.0050     0.0670 nc         1 FC4      -0.693300
     10 C12          4.8690    -1.6850    -0.6590 cd         1 FC4      -0.172900
     11 C14          6.1910    -1.4400    -1.1150 ch         1 FC4       0.306700
     12 N5           7.2740    -1.2080    -1.4840 n1         1 FC4      -0.440000
     13 C11          4.4760    -3.1030    -0.6260 c          1 FC4       0.577200
     14 O4           5.1920    -4.0490    -0.9210 o          1 FC4      -0.505000
     15 N3           3.1940    -3.2900    -0.2280 ns         1 FC4      -0.393400
     16 C10          2.3380    -2.2900     0.0990 cd         1 FC4       0.522800
     17 S2           0.6770    -2.6970     0.5550 ss         1 FC4      -0.143200
     18 C9           0.5300    -0.8650     2.6810 c3         1 FC4      -0.085100
     19 C8          -0.0430    -1.1330     1.2660 c3         1 FC4      -0.032700
     20 C7          -1.5830    -1.2190     1.2760 c          1 FC4       0.618100
     21 N2          -2.2090    -0.2810     0.4630 ns         1 FC4      -0.136000
     22 C6          -5.9790    -0.4430     0.3990 ca         1 FC4       0.022500
     23 C5          -4.6490    -0.7620     0.7240 ca         1 FC4      -0.174000
     24 C4          -3.5780    -0.0180     0.1830 ca         1 FC4       0.031000
     25 O3          -2.1780    -2.0500     1.9530 o          1 FC4      -0.552100
     26 C3          -3.8680     1.0480    -0.6890 ca         1 FC4      -0.174000
     27 C2          -5.1940     1.3730    -1.0190 ca         1 FC4       0.022500
     28 C1          -6.2560     0.6270    -0.4730 ca         1 FC4      -0.304500
     29 S1          -7.9520     1.0280    -0.8840 sy         1 FC4       1.135600
     30 O2          -7.9910     1.8970    -2.0580 o          1 FC4      -0.544000
     31 O1          -8.8110    -0.1460    -0.7310 o          1 FC4      -0.544000
     32 N1          -8.3610     2.0210     0.3480 n8         1 FC4      -1.010100
     33 H1           6.0240     0.5140     1.0270 ha         1 FC4       0.128500
     34 H2           6.6220     2.9230     0.9510 ha         1 FC4       0.135000
     35 H3           3.3210     3.6770    -1.7180 ha         1 FC4       0.135000
     36 H4           2.7150     1.2650    -1.6610 ha         1 FC4       0.128500
     37 H5           2.8800    -4.2480    -0.1920 hn         1 FC4       0.348500
     38 H6           0.1100     0.0580     3.0990 hc         1 FC4       0.058700
     39 H7           0.2910    -1.6910     3.3620 hc         1 FC4       0.058700
     40 H8           1.6200    -0.7540     2.6500 hc         1 FC4       0.058700
     41 H9           0.2320    -0.2990     0.6090 h1         1 FC4       0.108700
     42 H10         -1.5720     0.3330    -0.0260 hn         1 FC4       0.159000
     43 H11         -6.7890    -1.0300     0.8300 ha         1 FC4       0.141000
     44 H12         -4.4780    -1.5940     1.3990 ha         1 FC4       0.135000
     45 H13         -3.0580     1.6340    -1.1200 ha         1 FC4       0.135000
     46 H14         -5.3870     2.2030    -1.6990 ha         1 FC4       0.141000
     47 H15         -7.4520     2.3280     0.6850 hn         1 FC4       0.475000
     48 H16         -8.7150     2.8250    -0.1650 hn         1 FC4       0.475000
@<TRIPOS>BOND
     1     1     2 ar  
     2     1     7 ar  
     3     1    33 1   
     4     2     3 ar  
     5     2    34 1   
     6     3     4 1   
     7     3     5 ar  
     8     5     6 ar  
     9     5    35 1   
    10     6     7 ar  
    11     6    36 1   
    12     7     8 1   
    13     8     9 1   
    14     8    10 2   
    15     9    16 2   
    16    10    11 1   
    17    10    13 1   
    18    11    12 3   
    19    13    14 2   
    20    13    15 1   
    21    15    16 1   
    22    15    37 1   
    23    16    17 1   
    24    17    19 1   
    25    18    19 1   
    26    18    38 1   
    27    18    39 1   
    28    18    40 1   
    29    19    20 1   
    30    19    41 1   
    31    20    21 1   
    32    20    25 2   
    33    21    24 1   
    34    21    42 1   
    35    22    23 ar  
    36    22    28 ar  
    37    22    43 1   
    38    23    24 ar  
    39    23    44 1   
    40    24    26 ar  
    41    26    27 ar  
    42    26    45 1   
    43    27    28 ar  
    44    27    46 1   
    45    28    29 1   
    46    29    30 2   
    47    29    31 2   
    48    29    32 1   
    49    32    47 1   
    50    32    48 1   
@<TRIPOS>SUBSTRUCTURE
     1 FC4         1 TEMP              0 ****  ****    0 ROOT
