@<TRIPOS>MOLECULE
FC5
   18    19     1     0     0
SMALL
abcg2


@<TRIPOS>ATOM
      1 S1          -5.7970     1.4790    17.8660 s          1 FC5      -0.434400
      2 CAF         -5.4690     2.6770    16.7610 cs         1 FC5       0.471700
      3 CAI         -6.4450     3.5470    16.1840 cc         1 FC5      -0.269200
      4 CAH         -6.0970     4.5010    15.2860 cd         1 FC5      -0.077200
      5 CAN         -4.7330     4.6580    14.8890 ca         1 FC5      -0.101800
      6 CAM         -4.2930     5.6130    13.9640 ca         1 FC5      -0.096000
      7 OAK         -4.1830     2.8430    16.3780 os         1 FC5      -0.245200
      8 CAO         -3.7960     3.7930    15.4700 ca         1 FC5       0.095100
      9 CAL         -2.4490     3.8650    15.1470 ca         1 FC5      -0.078000
     10 CAG         -2.0290     4.8130    14.2320 ca         1 FC5      -0.150000
     11 CAJ         -2.9510     5.6890    13.6360 ca         1 FC5       0.119100
     12 OAD         -2.5680     6.6300    12.7300 oh         1 FC5      -0.532100
     13 HAI         -7.4700     3.4120    16.4960 ha         1 FC5       0.223000
     14 HAH0        -6.8470     5.1550    14.8580 ha         1 FC5       0.200000
     15 HAM         -5.0040     6.2880    13.5060 ha         1 FC5       0.139000
     16 HAL         -1.7460     3.1850    15.6090 ha         1 FC5       0.144000
     17 HAG         -0.9810     4.8830    13.9680 ha         1 FC5       0.124000
     18 HOAD        -1.6150     6.5810    12.5740 ho         1 FC5       0.469000
@<TRIPOS>BOND
     1     1     2 2   
     2     2     3 1   
     3     2     7 1   
     4     3     4 2   
     5     3    13 1   
     6     4     5 1   
     7     4    14 1   
     8     5     6 ar  
     9     5     8 ar  
    10     6    11 ar  
    11     6    15 1   
    12     7     8 1   
    13     8     9 ar  
    14     9    10 ar  
    15     9    16 1   
    16    10    11 ar  
    17    10    17 1   
    18    11    12 1   
    19    12    18 1   
@<TRIPOS>SUBSTRUCTURE
     1 FC5         1 TEMP              0 ****  ****    0 ROOT
