@<TRIPOS>MOLECULE
FC5
   18    19     1     0     0
SMALL
No Charge or Current Charge


@<TRIPOS>ATOM
      1 S1          -5.8890     1.4580    17.9160 s          1 FC5      -0.434400
      2 CAF         -5.4880     2.6390    16.8010 cs         1 FC5       0.471700
      3 CAI         -6.4540     3.5320    16.2020 cc         1 FC5      -0.269200
      4 CAH         -6.1120     4.5010    15.2850 cd         1 FC5      -0.077200
      5 CAN         -4.7210     4.6480    14.8900 ca         1 FC5      -0.101800
      6 CAM         -4.3010     5.6160    13.9580 ca         1 FC5      -0.096000
      7 OAK         -4.2000     2.8340    16.3830 os         1 FC5      -0.245200
      8 CAO         -3.7870     3.7810    15.4720 ca         1 FC5       0.095100
      9 CAL         -2.4270     3.8740    15.1290 ca         1 FC5      -0.078000
     10 CAG         -2.0030     4.8420    14.1980 ca         1 FC5      -0.150000
     11 CAJ         -2.9420     5.7120    13.6130 ca         1 FC5       0.119100
     12 OAD         -2.5390     6.6520    12.7100 oh         1 FC5      -0.532100
     13 HAI         -7.4840     3.3980    16.5170 ha         1 FC5       0.223000
     14 HAH0        -6.8780     5.1490    14.8630 ha         1 FC5       0.200000
     15 HAM         -5.0230     6.2910    13.5040 ha         1 FC5       0.139000
     16 HAL         -1.7060     3.1990    15.5840 ha         1 FC5       0.144000
     17 HAG         -0.9490     4.9090    13.9370 ha         1 FC5       0.124000
     18 HOAD        -1.5680     6.5770    12.5900 ho         1 FC5       0.469000
@<TRIPOS>BOND
     1     1     2 2   
     2     2     3 1   
     3     2     7 1   
     4     3     4 2   
     5     3    13 1   
     6     4     5 1   
     7     4    14 1   
     8     5     6 ar  
     9     5     8 ar  
    10     6    11 ar  
    11     6    15 1   
    12     7     8 1   
    13     8     9 ar  
    14     9    10 ar  
    15     9    16 1   
    16    10    11 ar  
    17    10    17 1   
    18    11    12 1   
    19    12    18 1   
@<TRIPOS>SUBSTRUCTURE
     1 FC5         1 TEMP              0 ****  ****    0 ROOT
