@<TRIPOS>MOLECULE
FC8
   51    54     1     0     0
SMALL
abcg2


@<TRIPOS>ATOM
      1 C4          -1.2670    -2.2390     0.2050 ca         1 FC8      -0.143600
      2 C14          0.1570     2.9740     0.8340 c6         1 FC8      -0.083400
      3 C5          -0.1660    -1.3790     0.0670 ca         1 FC8       0.479900
      4 C6           2.3250    -1.3170    -0.1630 ca         1 FC8       0.326000
      5 C11          3.4220    -2.1860    -0.2010 ca         1 FC8      -0.170000
      6 C7           2.5450     0.0560    -0.3080 ca         1 FC8      -0.141000
      7 C8           3.8370     0.5280    -0.4850 ca         1 FC8      -0.079000
      8 C9           4.9310    -0.3220    -0.5240 ca         1 FC8      -0.136000
      9 C10          4.6950    -1.6800    -0.3780 ca         1 FC8       0.152000
     10 C12         -1.6340     0.3990     0.0270 ca         1 FC8       0.431900
     11 C13         -0.7160     2.6590    -0.3830 c6         1 FC8       0.252500
     12 N1          -3.4080    -2.6350     0.3700 na         1 FC8      -0.289300
     13 N2          -1.3940    -3.6010     0.3160 nc         1 FC8      -0.548100
     14 C3          -2.6760    -3.7910     0.4080 cd         1 FC8       0.397700
     15 N3           1.0830    -1.9100     0.0160 nu         1 FC8      -0.924900
     16 C1          -5.4510    -2.2360    -0.9580 c3         1 FC8      -0.113100
     17 C2          -4.8520    -2.5100     0.4100 c3         1 FC8       0.089600
     18 CL1          6.0320    -2.7840    -0.4210 cl         1 FC8      -0.207000
     19 N4          -0.3750    -0.0760    -0.0150 nb         1 FC8      -0.338000
     20 N5          -1.7870     1.7380    -0.0590 nu         1 FC8      -0.900100
     21 C15         -0.5980     3.7600     1.8990 c6         1 FC8      -0.074400
     22 C16         -1.1730     5.0480     1.3220 c6         1 FC8      -0.073400
     23 C17         -2.0540     4.7590     0.1130 c6         1 FC8      -0.074400
     24 C18         -1.3120     3.9540    -0.9520 c6         1 FC8       0.146500
     25 N6          -2.2150     3.6470    -2.0480 n8         1 FC8      -1.012200
     26 N7          -2.7530    -0.3200     0.1480 nb         1 FC8      -0.283000
     27 C19         -2.5100    -1.6200     0.2330 ca         1 FC8       0.169500
     28 H1           0.5510     2.0460     1.2500 hc         1 FC8       0.052700
     29 H2           1.0220     3.5540     0.4940 hc         1 FC8       0.052700
     30 H3           3.2730    -3.2530    -0.0930 ha         1 FC8       0.129000
     31 H4           1.7180     0.7440    -0.2840 ha         1 FC8       0.152000
     32 H5           3.9920     1.5930    -0.5960 ha         1 FC8       0.114000
     33 H6           5.9320     0.0600    -0.6640 ha         1 FC8       0.130000
     34 H7          -0.0850     2.2100    -1.1600 h1         1 FC8       0.052700
     35 H8          -3.1600    -4.7510     0.5140 h5         1 FC8       0.063800
     36 H9           1.1020    -2.9170     0.0920 hn         1 FC8       0.520000
     37 H10         -5.2290    -3.0450    -1.6540 hc         1 FC8       0.049367
     38 H11         -6.5340    -2.1510    -0.8740 hc         1 FC8       0.049367
     39 H12         -5.0720    -1.3040    -1.3770 hc         1 FC8       0.049367
     40 H13         -5.2460    -3.4370     0.8260 h1         1 FC8       0.059700
     41 H14         -5.1040    -1.7120     1.1090 h1         1 FC8       0.059700
     42 H15         -2.7220     2.0380    -0.2900 hn         1 FC8       0.517000
     43 H16         -1.4090     3.1440     2.3000 hc         1 FC8       0.046700
     44 H17          0.0670     3.9790     2.7370 hc         1 FC8       0.046700
     45 H18         -1.7460     5.5870     2.0800 hc         1 FC8       0.039200
     46 H19         -0.3520     5.7100     1.0260 hc         1 FC8       0.039200
     47 H20         -2.9510     4.2160     0.4270 hc         1 FC8       0.046700
     48 H21         -2.4050     5.6950    -0.3310 hc         1 FC8       0.046700
     49 H22         -0.4450     4.5550    -1.2700 h1         1 FC8       0.024700
     50 H23         -2.5780     4.5080    -2.4380 hn         1 FC8       0.401500
     51 H24         -1.7080     3.1920    -2.7980 hn         1 FC8       0.401500
@<TRIPOS>BOND
     1     1     3 ar  
     2     1    13 1   
     3     1    27 ar  
     4     2    11 1   
     5     2    21 1   
     6     2    28 1   
     7     2    29 1   
     8     3    15 1   
     9     3    19 ar  
    10     4     5 ar  
    11     4     6 ar  
    12     4    15 1   
    13     5     9 ar  
    14     5    30 1   
    15     6     7 ar  
    16     6    31 1   
    17     7     8 ar  
    18     7    32 1   
    19     8     9 ar  
    20     8    33 1   
    21     9    18 1   
    22    10    19 ar  
    23    10    20 1   
    24    10    26 ar  
    25    11    20 1   
    26    11    24 1   
    27    11    34 1   
    28    12    14 1   
    29    12    17 1   
    30    12    27 1   
    31    13    14 2   
    32    14    35 1   
    33    15    36 1   
    34    16    17 1   
    35    16    37 1   
    36    16    38 1   
    37    16    39 1   
    38    17    40 1   
    39    17    41 1   
    40    20    42 1   
    41    21    22 1   
    42    21    43 1   
    43    21    44 1   
    44    22    23 1   
    45    22    45 1   
    46    22    46 1   
    47    23    24 1   
    48    23    47 1   
    49    23    48 1   
    50    24    25 1   
    51    24    49 1   
    52    25    50 1   
    53    25    51 1   
    54    26    27 ar  
@<TRIPOS>SUBSTRUCTURE
     1 FC8         1 TEMP              0 ****  ****    0 ROOT
