@<TRIPOS>MOLECULE
FC8
   51    54     1     0     0
SMALL
No Charge or Current Charge


@<TRIPOS>ATOM
      1 C4          -1.2860    -2.2450     0.0650 ca         1 FC8      -0.143600
      2 C14          0.2270     3.0730     0.7310 c6         1 FC8      -0.083400
      3 C5          -0.1700    -1.3920    -0.0520 ca         1 FC8       0.479900
      4 C6           2.4030    -1.4170    -0.2160 ca         1 FC8       0.326000
      5 C11          3.4710    -2.1850     0.2730 ca         1 FC8      -0.170000
      6 C7           2.6750    -0.1790    -0.8340 ca         1 FC8      -0.141000
      7 C8           3.9950     0.2930    -0.9390 ca         1 FC8      -0.079000
      8 C9           5.0540    -0.4770    -0.4320 ca         1 FC8      -0.136000
      9 C10          4.7890    -1.7160     0.1690 ca         1 FC8       0.152000
     10 C12         -1.5860     0.3980    -0.0020 ca         1 FC8       0.431900
     11 C13         -0.7910     2.7900    -0.4140 c6         1 FC8       0.252500
     12 N1          -3.4240    -2.7040     0.2380 na         1 FC8      -0.289300
     13 N2          -1.3280    -3.6380     0.1280 nc         1 FC8      -0.548100
     14 C3          -2.6500    -3.8760     0.2320 cd         1 FC8       0.397700
     15 N3           1.1100    -1.9320    -0.0940 nu         1 FC8      -0.924900
     16 C1          -5.5540    -2.4250    -1.0500 c3         1 FC8      -0.113100
     17 C2          -4.8840    -2.5520     0.3300 c3         1 FC8       0.089600
     18 Cl1          6.1150    -2.6860     0.7970 cl         1 FC8      -0.207000
     19 N4          -0.3230    -0.0600    -0.0770 nb         1 FC8      -0.338000
     20 N5          -1.7900     1.7660    -0.0390 nu         1 FC8      -0.900100
     21 C15         -0.4060     3.8400     1.9190 c6         1 FC8      -0.074400
     22 C16         -1.0620     5.1570     1.4430 c6         1 FC8      -0.073400
     23 C17         -2.1270     4.8840     0.3540 c6         1 FC8      -0.074400
     24 C18         -1.5310     4.1140    -0.8580 c6         1 FC8       0.146500
     25 N6          -2.6090     3.8640    -1.8570 n8         1 FC8      -1.012200
     26 N7          -2.7090    -0.3380     0.0990 nb         1 FC8      -0.283000
     27 C19         -2.5310    -1.6720     0.1330 ca         1 FC8       0.169500
     28 H1           0.6810     2.1410     1.0900 hc         1 FC8       0.052700
     29 H2           1.0550     3.6690     0.3250 hc         1 FC8       0.052700
     30 H3           3.2830    -3.1450     0.7430 ha         1 FC8       0.129000
     31 H4           1.8730     0.4180    -1.2540 ha         1 FC8       0.152000
     32 H5           4.1960     1.2500    -1.4170 ha         1 FC8       0.114000
     33 H6           6.0780    -0.1180    -0.5110 ha         1 FC8       0.130000
     34 H7          -0.2270     2.4280    -1.2870 h1         1 FC8       0.052700
     35 H8          -3.1130    -4.8530     0.3050 h5         1 FC8       0.063800
     36 H9           1.0730    -2.9350     0.0880 hn         1 FC8       0.520000
     37 H10         -5.3560    -3.3150    -1.6590 hc         1 FC8       0.049367
     38 H11         -6.6390    -2.3180    -0.9380 hc         1 FC8       0.049367
     39 H12         -5.1740    -1.5470    -1.5850 hc         1 FC8       0.049367
     40 H13         -5.2970    -3.4230     0.8550 h1         1 FC8       0.059700
     41 H14         -5.1120    -1.6610     0.9290 h1         1 FC8       0.059700
     42 H15         -2.7560     2.0320    -0.2260 hn         1 FC8       0.517000
     43 H16         -1.1550     3.2080     2.4160 hc         1 FC8       0.046700
     44 H17          0.3640     4.0590     2.6720 hc         1 FC8       0.046700
     45 H18         -1.5250     5.6710     2.2960 hc         1 FC8       0.039200
     46 H19         -0.2920     5.8360     1.0490 hc         1 FC8       0.039200
     47 H20         -2.9570     4.3130     0.7930 hc         1 FC8       0.046700
     48 H21         -2.5540     5.8390     0.0170 hc         1 FC8       0.046700
     49 H22         -0.7890     4.7650    -1.3450 h1         1 FC8       0.024700
     50 H23         -2.9370     4.7660    -2.2220 hn         1 FC8       0.401500
     51 H24         -2.1980     3.4100    -2.6810 hn         1 FC8       0.401500
@<TRIPOS>BOND
     1     1     3 ar  
     2     1    13 1   
     3     1    27 ar  
     4     2    11 1   
     5     2    21 1   
     6     2    28 1   
     7     2    29 1   
     8     3    15 1   
     9     3    19 ar  
    10     4     5 ar  
    11     4     6 ar  
    12     4    15 1   
    13     5     9 ar  
    14     5    30 1   
    15     6     7 ar  
    16     6    31 1   
    17     7     8 ar  
    18     7    32 1   
    19     8     9 ar  
    20     8    33 1   
    21     9    18 1   
    22    10    19 ar  
    23    10    20 1   
    24    10    26 ar  
    25    11    20 1   
    26    11    24 1   
    27    11    34 1   
    28    12    14 1   
    29    12    17 1   
    30    12    27 1   
    31    13    14 2   
    32    14    35 1   
    33    15    36 1   
    34    16    17 1   
    35    16    37 1   
    36    16    38 1   
    37    16    39 1   
    38    17    40 1   
    39    17    41 1   
    40    20    42 1   
    41    21    22 1   
    42    21    43 1   
    43    21    44 1   
    44    22    23 1   
    45    22    45 1   
    46    22    46 1   
    47    23    24 1   
    48    23    47 1   
    49    23    48 1   
    50    24    25 1   
    51    24    49 1   
    52    25    50 1   
    53    25    51 1   
    54    26    27 ar  
@<TRIPOS>SUBSTRUCTURE
     1 FC8         1 TEMP              0 ****  ****    0 ROOT
