@<TRIPOS>MOLECULE
FC9
   66    71     1     0     0
SMALL
bcc


@<TRIPOS>ATOM
      1 C9          -8.4020     0.0500    -1.2560 ca         1 FC9      -0.146000
      2 C10         -7.6410     0.0130    -0.0940 ca         1 FC9       0.064800
      3 C11         -8.2170    -0.3130     1.1260 ca         1 FC9      -0.146000
      4 C12         -9.5700    -0.5950     1.1890 ca         1 FC9      -0.021000
      5 C8          -9.7520    -0.2460    -1.1940 ca         1 FC9      -0.021000
      6 C7         -10.3290    -0.5590     0.0290 ca         1 FC9      -0.322500
      7 S          -12.0700    -0.8970     0.1120 sy         1 FC9       1.288200
      8 O1         -12.4920    -1.3630    -1.1970 o          1 FC9      -0.596800
      9 O2         -12.3070    -1.7090     1.2930 o          1 FC9      -0.596800
     10 N3         -12.8360     0.5310     0.3670 n8         1 FC9      -0.891700
     11 N1          -6.2650     0.3100    -0.1570 na         1 FC9       0.154300
     12 N2          -5.5840     0.1210    -1.2800 nc         1 FC9      -0.177800
     13 N4          -4.3700     0.4700    -1.0640 nd         1 FC9      -0.353000
     14 C4          -4.2370     0.8850     0.2160 cd         1 FC9       0.258600
     15 C5          -5.4580     0.7830     0.8190 cc         1 FC9      -0.217600
     16 C1          -2.9480     1.3850     0.7730 c3         1 FC9       0.100700
     17 N5          -1.8480     0.6430     0.2010 ns         1 FC9      -0.526900
     18 C6          -0.5710     0.8220     0.5540 cs         1 FC9       0.616400
     19 S7          -0.1360     1.8770     1.7820 s          1 FC9      -0.686400
     20 N8           0.3090     0.0930    -0.1750 ns         1 FC9      -0.413100
     21 C13          1.7080     0.0640    -0.0690 ca         1 FC9       0.027600
     22 C14          2.3670    -0.0630     1.1510 ca         1 FC9      -0.126000
     23 C15          3.7490    -0.1350     1.1720 ca         1 FC9      -0.126000
     24 C16          4.4920    -0.1020    -0.0060 ca         1 FC9      -0.069000
     25 C17          3.8340    -0.0020    -1.2300 ca         1 FC9      -0.103600
     26 C18          2.4490     0.0850    -1.2440 ca         1 FC9      -0.130000
     27 C3           5.9680    -0.1590     0.1080 cc         1 FC9       0.221000
     28 C19          6.6160    -1.3430     0.3700 cd         1 FC9      -0.254100
     29 C20          8.0310    -1.3490     0.5890 cd         1 FC9       0.368700
     30 O21          8.7130    -0.1840     0.5640 os         1 FC9      -0.390800
     31 C22          8.0960     0.9930     0.3640 ca         1 FC9       0.426000
     32 C23          6.7180     1.0580     0.1410 ca         1 FC9      -0.206300
     33 C24          6.1530     2.3290    -0.0500 ca         1 FC9       0.000000
     34 C25          6.9200     3.4650    -0.0240 ca         1 FC9      -0.204000
     35 C26          8.3040     3.3660     0.1960 ca         1 FC9       0.184100
     36 C27          8.8950     2.1260     0.3920 ca         1 FC9      -0.342300
     37 O3           9.0040     4.5040     0.2080 oh         1 FC9      -0.494100
     38 C21          8.7370    -2.4870     0.8240 cc         1 FC9      -0.351200
     39 C28          8.0850    -3.7720     0.8590 c          1 FC9       0.591500
     40 C29          6.6430    -3.7600     0.6250 cc         1 FC9      -0.277200
     41 C30          5.9630    -2.6180     0.3950 cd         1 FC9      -0.011200
     42 O4           8.6980    -4.8260     1.0710 o          1 FC9      -0.610100
     43 C2           4.6150     0.0090    -2.5350 c          1 FC9       0.920200
     44 O5           5.8500    -0.1030    -2.4180 o          1 FC9      -0.800300
     45 O6           3.9620     0.1260    -3.5860 o          1 FC9      -0.800300
     46 H1          -7.9520     0.3080    -2.2040 ha         1 FC9       0.161500
     47 H2          -7.6210    -0.3670     2.0270 ha         1 FC9       0.161500
     48 H3         -10.0110    -0.8560     2.1410 ha         1 FC9       0.161000
     49 H4         -10.3410    -0.2230    -2.1010 ha         1 FC9       0.161000
     50 H5         -12.7440     1.1910    -0.3970 hn         1 FC9       0.423300
     51 H6         -12.6220     0.9610     1.2600 hn         1 FC9       0.423300
     52 H7          -5.7970     1.0210     1.8120 h4         1 FC9       0.194000
     53 H8          -2.8340     2.4530     0.5630 h1         1 FC9       0.077700
     54 H9          -2.9510     1.2810     1.8580 h1         1 FC9       0.077700
     55 H10         -2.0610     0.0550    -0.5930 hn         1 FC9       0.323500
     56 H11         -0.0540    -0.3490    -1.0080 hn         1 FC9       0.309500
     57 H12          1.8120    -0.1160     2.0750 ha         1 FC9       0.147000
     58 H13          4.2560    -0.2310     2.1240 ha         1 FC9       0.127000
     59 H14          1.9410     0.1720    -2.1970 ha         1 FC9       0.155000
     60 H15          5.0880     2.4140    -0.2200 ha         1 FC9       0.158000
     61 H16          6.4700     4.4380    -0.1750 ha         1 FC9       0.147000
     62 H17          9.9600     2.0320     0.5640 ha         1 FC9       0.143000
     63 H19          9.8070    -2.4370     0.9840 ha         1 FC9       0.145000
     64 H20          6.1230    -4.7100     0.6360 ha         1 FC9       0.133000
     65 H21          4.8950    -2.6520     0.2210 ha         1 FC9       0.137000
     66 H18          9.9420     4.3320     0.3550 ho         1 FC9       0.424000
@<TRIPOS>BOND
     1     1     2 ar  
     2     1     5 ar  
     3     1    46 1   
     4     2     3 ar  
     5     2    11 1   
     6     3     4 ar  
     7     3    47 1   
     8     4     6 ar  
     9     4    48 1   
    10     5     6 ar  
    11     5    49 1   
    12     6     7 1   
    13     7     8 2   
    14     7     9 2   
    15     7    10 1   
    16    10    50 1   
    17    10    51 1   
    18    11    12 1   
    19    11    15 1   
    20    12    13 2   
    21    13    14 1   
    22    14    15 2   
    23    14    16 1   
    24    15    52 1   
    25    16    17 1   
    26    16    53 1   
    27    16    54 1   
    28    17    18 1   
    29    17    55 1   
    30    18    19 2   
    31    18    20 1   
    32    20    21 1   
    33    20    56 1   
    34    21    22 ar  
    35    21    26 ar  
    36    22    23 ar  
    37    22    57 1   
    38    23    24 ar  
    39    23    58 1   
    40    24    25 ar  
    41    24    27 1   
    42    25    26 ar  
    43    25    43 1   
    44    26    59 1   
    45    27    28 2   
    46    27    32 1   
    47    28    29 1   
    48    28    41 1   
    49    29    30 1   
    50    29    38 2   
    51    30    31 1   
    52    31    32 ar  
    53    31    36 ar  
    54    32    33 ar  
    55    33    34 ar  
    56    33    60 1   
    57    34    35 ar  
    58    34    61 1   
    59    35    36 ar  
    60    35    37 1   
    61    36    62 1   
    62    37    66 1   
    63    38    39 1   
    64    38    63 1   
    65    39    40 1   
    66    39    42 2   
    67    40    41 2   
    68    40    64 1   
    69    41    65 1   
    70    43    44 1   
    71    43    45 1   
@<TRIPOS>SUBSTRUCTURE
     1 FC9         1 TEMP              0 ****  ****    0 ROOT
