@<TRIPOS>MOLECULE
FC9
   66    71     1     0     0
SMALL
No Charge or Current Charge


@<TRIPOS>ATOM
      1 C9          -8.6330     0.8230    -0.9880 ca         1 FC9      -0.128000
      2 C10         -7.5370     0.2810    -0.2820 ca         1 FC9       0.064800
      3 C11         -7.7130    -0.9200     0.4360 ca         1 FC9      -0.128000
      4 C12         -8.9590    -1.5700     0.4500 ca         1 FC9      -0.003000
      5 C8          -9.8810     0.1780    -0.9780 ca         1 FC9      -0.003000
      6 C7         -10.0490    -1.0220    -0.2560 ca         1 FC9      -0.322500
      7 S          -11.6380    -1.8530    -0.2360 sy         1 FC9       1.146600
      8 O1         -12.4850    -1.3390    -1.3090 o          1 FC9      -0.526000
      9 O2         -11.4680    -3.2810     0.0330 o          1 FC9      -0.526000
     10 N3         -12.3030    -1.2350     1.1230 n8         1 FC9      -1.002100
     11 N1          -6.2950     0.9280    -0.2930 na         1 FC9       0.205000
     12 N2          -5.7780     1.4430    -1.4380 nc         1 FC9      -0.177800
     13 N4          -4.6040     1.9140    -1.1030 nd         1 FC9      -0.353000
     14 C4          -4.3820     1.6760     0.2470 cd         1 FC9       0.193300
     15 C5          -5.4610     1.0300     0.7860 cc         1 FC9      -0.185000
     16 C1          -3.1070     2.0910     0.9410 c3         1 FC9       0.100700
     17 N5          -1.9090     1.5010     0.3280 ns         1 FC9      -0.459900
     18 C6          -0.6420     1.5640     0.8300 cs         1 FC9       0.482400
     19 S7          -0.2760     2.3810     2.2450 s          1 FC9      -0.686400
     20 N8           0.2630     0.9550    -0.0010 ns         1 FC9      -0.346100
     21 C13          1.6520     0.6850     0.0940 ca         1 FC9       0.027600
     22 C14          2.3120     0.5270     1.3260 ca         1 FC9      -0.108000
     23 C15          3.6860     0.2450     1.3620 ca         1 FC9      -0.108000
     24 C16          4.4220     0.0960     0.1700 ca         1 FC9      -0.069000
     25 C17          3.7650     0.2370    -1.0780 ca         1 FC9      -0.103600
     26 C18          2.3830     0.5280    -1.0970 ca         1 FC9      -0.112000
     27 C3           5.8640    -0.1580     0.2560 cc         1 FC9       0.221000
     28 C19          6.3100    -1.4360     0.5930 cd         1 FC9      -0.188800
     29 C20          7.7270    -1.6620     0.6950 cd         1 FC9       0.259000
     30 O21          8.6320    -0.6710     0.4730 os         1 FC9      -0.302000
     31 C22          8.2300     0.5950     0.1450 ca         1 FC9       0.251000
     32 C23          6.8620     0.8930     0.0310 ca         1 FC9      -0.141000
     33 C24          6.4770     2.2120    -0.2930 ca         1 FC9       0.018000
     34 C25          7.4540     3.2010    -0.5030 ca         1 FC9      -0.186000
     35 C26          8.8140     2.8840    -0.3900 ca         1 FC9       0.184100
     36 C27          9.2040     1.5810    -0.0640 ca         1 FC9      -0.259000
     37 O3           9.7510     3.8480    -0.5950 oh         1 FC9      -0.533100
     38 C21          8.2040    -2.9020     1.0230 cc         1 FC9      -0.401200
     39 C28          7.3150    -4.0270     1.2780 c          1 FC9       0.591500
     40 C29          5.8800    -3.7470     1.1470 cc         1 FC9      -0.327200
     41 C30          5.3660    -2.5090     0.8170 cd         1 FC9      -0.061200
     42 O4           7.7400    -5.1320     1.5770 o          1 FC9      -0.610100
     43 C2           4.5070     0.0960    -2.3920 c          1 FC9       0.709600
     44 O5           5.2430    -0.8670    -2.5510 o          1 FC9      -0.695000
     45 O6           4.2900     0.9280    -3.2620 o          1 FC9      -0.695000
     46 H1          -8.5190     1.7500    -1.5450 ha         1 FC9       0.143500
     47 H2          -6.8810    -1.3610     0.9800 ha         1 FC9       0.143500
     48 H3          -9.0710    -2.4970     1.0110 ha         1 FC9       0.143000
     49 H4         -10.7110     0.6170    -1.5320 ha         1 FC9       0.143000
     50 H5         -13.1860    -0.8840     0.7600 hn         1 FC9       0.478500
     51 H6         -11.7470    -0.3960     1.2650 hn         1 FC9       0.478500
     52 H7          -5.6840     0.6710     1.7810 h4         1 FC9       0.176000
     53 H8          -3.0230     3.1850     0.9100 h1         1 FC9       0.077700
     54 H9          -3.1600     1.7840     1.9940 h1         1 FC9       0.077700
     55 H10         -2.0410     1.0140    -0.5500 hn         1 FC9       0.323500
     56 H11         -0.1440     0.6040    -0.8580 hn         1 FC9       0.309500
     57 H12          1.7690     0.6030     2.2630 ha         1 FC9       0.129000
     58 H13          4.1850     0.1370     2.3230 ha         1 FC9       0.109000
     59 H14          1.8770     0.6380    -2.0540 ha         1 FC9       0.137000
     60 H15          5.4270     2.4810    -0.3820 ha         1 FC9       0.140000
     61 H16          7.1530     4.2150    -0.7530 ha         1 FC9       0.129000
     62 H17         10.2550     1.3220     0.0310 ha         1 FC9       0.125000
     63 H19          9.2630    -3.1010     1.1090 ha         1 FC9       0.195000
     64 H20          5.2300    -4.5950     1.3300 ha         1 FC9       0.183000
     65 H21          4.2900    -2.3760     0.7320 ha         1 FC9       0.187000
     66 H18         10.6370     3.4440    -0.4740 ho         1 FC9       0.463000
@<TRIPOS>BOND
     1     1     2 ar  
     2     1     5 ar  
     3     1    46 1   
     4     2     3 ar  
     5     2    11 1   
     6     3     4 ar  
     7     3    47 1   
     8     4     6 ar  
     9     4    48 1   
    10     5     6 ar  
    11     5    49 1   
    12     6     7 1   
    13     7     8 2   
    14     7     9 2   
    15     7    10 1   
    16    10    50 1   
    17    10    51 1   
    18    11    12 1   
    19    11    15 1   
    20    12    13 2   
    21    13    14 1   
    22    14    15 2   
    23    14    16 1   
    24    15    52 1   
    25    16    17 1   
    26    16    53 1   
    27    16    54 1   
    28    17    18 1   
    29    17    55 1   
    30    18    19 2   
    31    18    20 1   
    32    20    21 1   
    33    20    56 1   
    34    21    22 ar  
    35    21    26 ar  
    36    22    23 ar  
    37    22    57 1   
    38    23    24 ar  
    39    23    58 1   
    40    24    25 ar  
    41    24    27 1   
    42    25    26 ar  
    43    25    43 1   
    44    26    59 1   
    45    27    28 2   
    46    27    32 1   
    47    28    29 1   
    48    28    41 1   
    49    29    30 1   
    50    29    38 2   
    51    30    31 1   
    52    31    32 ar  
    53    31    36 ar  
    54    32    33 ar  
    55    33    34 ar  
    56    33    60 1   
    57    34    35 ar  
    58    34    61 1   
    59    35    36 ar  
    60    35    37 1   
    61    36    62 1   
    62    37    66 1   
    63    38    39 1   
    64    38    63 1   
    65    39    40 1   
    66    39    42 2   
    67    40    41 2   
    68    40    64 1   
    69    41    65 1   
    70    43    44 1   
    71    43    45 1   
@<TRIPOS>SUBSTRUCTURE
     1 FC9         1 TEMP              0 ****  ****    0 ROOT
