@<TRIPOS>MOLECULE
FCA
   23    23     1     0     0
SMALL
No Charge or Current Charge


@<TRIPOS>ATOM
      1 C1          14.2230    57.0820    55.1470 c6         1 FCA       0.387300
      2 C2          12.6800    57.2370    54.8680 c6         1 FCA       0.162300
      3 C3          12.2070    56.1980    53.8020 c6         1 FCA       0.140300
      4 C4          13.0770    56.3100    52.5140 c6         1 FCA       0.116300
      5 C5          14.5850    56.1600    52.9140 c6         1 FCA       0.140300
      6 C6          15.5610    56.3240    51.7210 c3         1 FCA      -0.092100
      7 O1          14.5630    55.8370    55.7630 oh         1 FCA      -0.727000
      8 O2          11.8600    57.1390    56.0590 oh         1 FCA      -0.706000
      9 O3          10.8260    56.4230    53.4650 oh         1 FCA      -0.711000
     10 O4          12.7900    57.5690    51.8630 oh         1 FCA      -0.695000
     11 O5          14.9610    57.1480    53.9080 os         1 FCA      -0.475000
     12 H1          14.5410    57.9130    55.7970 h2         1 FCA       0.076700
     13 H2          12.5490    58.2390    54.4320 h1         1 FCA       0.070700
     14 H3          12.3340    55.1870    54.2190 h1         1 FCA       0.057700
     15 H4          12.8160    55.4780    51.8420 h1         1 FCA       0.030700
     16 H5          14.7410    55.1510    53.3260 h1         1 FCA       0.048700
     17 H61         16.5910    56.1100    52.0310 hc         1 FCA       0.045700
     18 H62         15.3110    55.6300    50.9100 hc         1 FCA       0.045700
     19 H63         15.5430    57.3420    51.3150 hc         1 FCA       0.045700
     20 HO1         15.5440    55.8380    55.7940 ho         1 FCA       0.512000
     21 HO2         10.9690    56.8800    55.7220 ho         1 FCA       0.520000
     22 HO3         10.8740    57.0350    52.6890 ho         1 FCA       0.506000
     23 HO4         13.4390    57.6730    51.1300 ho         1 FCA       0.502000
@<TRIPOS>BOND
     1     1     2 1   
     2     1     7 1   
     3     1    11 1   
     4     1    12 1   
     5     2     3 1   
     6     2     8 1   
     7     2    13 1   
     8     3     4 1   
     9     3     9 1   
    10     3    14 1   
    11     4     5 1   
    12     4    10 1   
    13     4    15 1   
    14     5     6 1   
    15     5    11 1   
    16     5    16 1   
    17     6    17 1   
    18     6    18 1   
    19     6    19 1   
    20     7    20 1   
    21     8    21 1   
    22     9    22 1   
    23    10    23 1   
@<TRIPOS>SUBSTRUCTURE
     1 FCA         1 TEMP              0 ****  ****    0 ROOT
