@<TRIPOS>MOLECULE
FCA
   23    23     1     0     0
SMALL
abcg2


@<TRIPOS>ATOM
      1 C1          14.2170    56.9610    55.1150 c6         1 FCA       0.387300
      2 C2          12.7420    57.2250    54.8160 c6         1 FCA       0.162300
      3 C3          12.2590    56.3060    53.7010 c6         1 FCA       0.140300
      4 C4          13.1480    56.4660    52.4680 c6         1 FCA       0.116300
      5 C5          14.6010    56.2160    52.8800 c6         1 FCA       0.140300
      6 C6          15.5880    56.4330    51.7510 c3         1 FCA      -0.092100
      7 O1          14.3330    55.7060    55.7060 oh         1 FCA      -0.727000
      8 O2          12.0100    57.0560    56.0030 oh         1 FCA      -0.706000
      9 O3          10.9080    56.6190    53.4530 oh         1 FCA      -0.711000
     10 O4          12.9460    57.7520    51.9340 oh         1 FCA      -0.695000
     11 O5          14.9790    57.0800    53.9450 os         1 FCA      -0.475000
     12 H1          14.6030    57.7430    55.7800 h2         1 FCA       0.076700
     13 H2          12.6780    58.2650    54.4640 h1         1 FCA       0.070700
     14 H3          12.3580    55.2650    54.0390 h1         1 FCA       0.057700
     15 H4          12.8770    55.6880    51.7370 h1         1 FCA       0.030700
     16 H5          14.6720    55.1670    53.1990 h1         1 FCA       0.048700
     17 H61         16.5970    56.1640    52.0610 hc         1 FCA       0.045700
     18 H62         15.3250    55.8060    50.8980 hc         1 FCA       0.045700
     19 H63         15.6060    57.4720    51.4190 hc         1 FCA       0.045700
     20 HO1         15.2310    55.6010    56.0400 ho         1 FCA       0.512000
     21 HO2         11.0870    57.2430    55.8040 ho         1 FCA       0.520000
     22 HO3         10.5060    55.8900    52.9710 ho         1 FCA       0.506000
     23 HO4         13.3120    57.7790    51.0450 ho         1 FCA       0.502000
@<TRIPOS>BOND
     1     1     2 1   
     2     1     7 1   
     3     1    11 1   
     4     1    12 1   
     5     2     3 1   
     6     2     8 1   
     7     2    13 1   
     8     3     4 1   
     9     3     9 1   
    10     3    14 1   
    11     4     5 1   
    12     4    10 1   
    13     4    15 1   
    14     5     6 1   
    15     5    11 1   
    16     5    16 1   
    17     6    17 1   
    18     6    18 1   
    19     6    19 1   
    20     7    20 1   
    21     8    21 1   
    22     9    22 1   
    23    10    23 1   
@<TRIPOS>SUBSTRUCTURE
     1 FCA         1 TEMP              0 ****  ****    0 ROOT
