@<TRIPOS>MOLECULE
FCB
   23    23     1     0     0
SMALL
bcc


@<TRIPOS>ATOM
      1 C1          14.1270    56.3740    55.1540 c6         1 FCB       0.356900
      2 C2          12.6900    56.8230    54.9090 c6         1 FCB       0.129100
      3 C3          12.1670    56.1170    53.6610 c6         1 FCB       0.113100
      4 C4          13.0840    56.3630    52.4650 c6         1 FCB       0.092100
      5 C5          14.5020    55.9390    52.8620 c6         1 FCB       0.130100
      6 C6          15.5310    56.1800    51.7770 c3         1 FCB      -0.091100
      7 O1          14.6430    57.0800    56.2200 oh         1 FCB      -0.555800
      8 O2          11.9280    56.4900    56.0420 oh         1 FCB      -0.588800
      9 O3          10.8440    56.5510    53.4570 oh         1 FCB      -0.581800
     10 O4          12.9990    57.7190    52.1020 oh         1 FCB      -0.564800
     11 O5          14.9140    56.6410    54.0200 os         1 FCB      -0.434600
     12 H1          14.1300    55.2860    55.3480 h2         1 FCB       0.016700
     13 H2          12.6950    57.9100    54.7360 h1         1 FCB       0.088700
     14 H3          12.1940    55.0350    53.8590 h1         1 FCB       0.034700
     15 H4          12.7600    55.7090    51.6400 h1         1 FCB       0.029700
     16 H5          14.4670    54.8580    53.0740 h1         1 FCB       0.031700
     17 H61         16.5060    55.7960    52.0770 hc         1 FCB       0.048367
     18 H62         15.2390    55.6650    50.8610 hc         1 FCB       0.048367
     19 H63         15.6440    57.2410    51.5520 hc         1 FCB       0.048367
     20 HO1         15.4340    56.6350    56.5410 ho         1 FCB       0.416000
     21 HO2         11.0010    56.6380    55.8240 ho         1 FCB       0.421000
     22 HO3         10.4030    55.9330    52.8660 ho         1 FCB       0.408000
     23 HO4         13.3890    57.8320    51.2310 ho         1 FCB       0.404000
@<TRIPOS>BOND
     1     1     2 1   
     2     1     7 1   
     3     1    11 1   
     4     1    12 1   
     5     2     3 1   
     6     2     8 1   
     7     2    13 1   
     8     3     4 1   
     9     3     9 1   
    10     3    14 1   
    11     4     5 1   
    12     4    10 1   
    13     4    15 1   
    14     5     6 1   
    15     5    11 1   
    16     5    16 1   
    17     6    17 1   
    18     6    18 1   
    19     6    19 1   
    20     7    20 1   
    21     8    21 1   
    22     9    22 1   
    23    10    23 1   
@<TRIPOS>SUBSTRUCTURE
     1 FCB         1 TEMP              0 ****  ****    0 ROOT
