@<TRIPOS>MOLECULE
FCB
   23    23     1     0     0
SMALL
No Charge or Current Charge


@<TRIPOS>ATOM
      1 C1          14.1230    56.3220    55.2320 c6         1 FCB       0.403300
      2 C2          12.6210    56.7190    54.9860 c6         1 FCB       0.152300
      3 C3          12.0890    55.9710    53.7230 c6         1 FCB       0.136300
      4 C4          13.0230    56.2220    52.5010 c6         1 FCB       0.115300
      5 C5          14.4870    55.8360    52.9080 c6         1 FCB       0.153300
      6 C6          15.5320    56.0910    51.7930 c3         1 FCB      -0.091100
      7 O1          14.7320    57.1100    56.2350 oh         1 FCB      -0.678000
      8 O2          11.7550    56.4360    56.1150 oh         1 FCB      -0.711000
      9 O3          10.7570    56.4090    53.4060 oh         1 FCB      -0.704000
     10 O4          12.8970    57.6040    52.0950 oh         1 FCB      -0.687000
     11 O5          14.9090    56.5900    54.0650 os         1 FCB      -0.481000
     12 H1          14.1990    55.2560    55.4930 h2         1 FCB       0.016700
     13 H2          12.6060    57.7980    54.7700 h1         1 FCB       0.088700
     14 H3          12.0850    54.8910    53.9350 h1         1 FCB       0.034700
     15 H4          12.7090    55.5630    51.6780 h1         1 FCB       0.029700
     16 H5          14.5180    54.7650    53.1580 h1         1 FCB       0.031700
     17 H61         16.5180    55.7200    52.0940 hc         1 FCB       0.048367
     18 H62         15.2540    55.5730    50.8670 hc         1 FCB       0.048367
     19 H63         15.6350    57.1590    51.5660 hc         1 FCB       0.048367
     20 HO1         15.5190    57.4640    55.7680 ho         1 FCB       0.515000
     21 HO2         10.8460    56.4040    55.7290 ho         1 FCB       0.520000
     22 HO3         10.9010    57.1450    52.7600 ho         1 FCB       0.507000
     23 HO4         13.5770    57.7680    51.4020 ho         1 FCB       0.503000
@<TRIPOS>BOND
     1     1     2 1   
     2     1     7 1   
     3     1    11 1   
     4     1    12 1   
     5     2     3 1   
     6     2     8 1   
     7     2    13 1   
     8     3     4 1   
     9     3     9 1   
    10     3    14 1   
    11     4     5 1   
    12     4    10 1   
    13     4    15 1   
    14     5     6 1   
    15     5    11 1   
    16     5    16 1   
    17     6    17 1   
    18     6    18 1   
    19     6    19 1   
    20     7    20 1   
    21     8    21 1   
    22     9    22 1   
    23    10    23 1   
@<TRIPOS>SUBSTRUCTURE
     1 FCB         1 TEMP              0 ****  ****    0 ROOT
