@<TRIPOS>MOLECULE
FCC
   51    55     1     0     0
SMALL
bcc


@<TRIPOS>ATOM
      1 C10        175.0990   175.2620   190.4390 ca         1 FCC       0.080600
      2 C13        175.4800   172.3440   188.6400 ca         1 FCC      -0.050300
      3 C15        174.3550   174.0380   192.4830 ca         1 FCC       0.041600
      4 C17        176.7150   176.9610   190.0980 ca         1 FCC      -0.094000
      5 C20        171.0060   175.7180   189.9690 ca         1 FCC      -0.236300
      6 C21        176.7760   172.8390   188.5410 ca         1 FCC      -0.236300
      7 C22        173.3340   174.4530   193.3260 ca         1 FCC      -0.116500
      8 C24        171.7070   178.2610   189.3840 ca         1 FCC       0.396450
      9 C26        170.5220   176.8150   190.6660 ca         1 FCC       0.396450
     10 C28        173.3990   174.1520   194.6790 ca         1 FCC      -0.123500
     11 C05        173.7620   174.2010   188.8180 c5         1 FCC      -0.075700
     12 C06        174.8090   175.2430   189.0810 ca         1 FCC      -0.139300
     13 C07        172.4880   174.7630   188.1600 c3         1 FCC      -0.011600
     14 C08        174.3140   173.0230   187.9790 c3         1 FCC      -0.011600
     15 C09        173.4580   173.6880   190.2280 c          1 FCC       0.719500
     16 C11        175.4720   176.0910   188.2200 ca         1 FCC      -0.082000
     17 C12        171.9010   175.9170   188.9220 ca         1 FCC      -0.050300
     18 C14        176.0480   176.1100   190.9760 ca         1 FCC      -0.149000
     19 C16        176.4340   176.9580   188.7370 ca         1 FCC      -0.161000
     20 C18        172.2460   177.2320   188.6290 ca         1 FCC      -0.236300
     21 C19        175.2980   171.2040   189.4180 ca         1 FCC      -0.236300
     22 C23        175.4400   173.3270   192.9800 ca         1 FCC      -0.116500
     23 C25        176.3870   170.6410   190.0660 ca         1 FCC       0.396450
     24 C27        177.7990   172.2040   189.2280 ca         1 FCC       0.396450
     25 C29        175.5040   173.0370   194.3360 ca         1 FCC      -0.123500
     26 C30        174.4830   173.4460   195.1850 ca         1 FCC      -0.122000
     27 N02        174.2920   174.3310   191.1000 n          1 FCC      -0.294200
     28 N03        170.8610   178.0690   190.3900 nb         1 FCC      -0.664000
     29 N04        177.6200   171.1270   189.9850 nb         1 FCC      -0.664000
     30 O01        172.6440   172.8440   190.5280 o          1 FCC      -0.593500
     31 H1         177.4650   177.6360   190.4880 ha         1 FCC       0.135000
     32 H2         170.6790   174.7240   190.2450 ha         1 FCC       0.146750
     33 H3         176.9990   173.7110   187.9400 ha         1 FCC       0.146750
     34 H4         172.4950   175.0100   192.9270 ha         1 FCC       0.145000
     35 H5         171.9720   179.2890   189.1620 h4         1 FCC       0.019100
     36 H6         169.8230   176.6710   191.4830 h4         1 FCC       0.019100
     37 H7         172.6030   174.4720   195.3380 ha         1 FCC       0.136500
     38 H8         171.7550   173.9580   188.0740 hc         1 FCC       0.062950
     39 H9         172.7390   175.0760   187.1440 hc         1 FCC       0.062950
     40 H10        174.6020   173.4090   186.9990 hc         1 FCC       0.062950
     41 H11        173.5090   172.3030   187.8210 hc         1 FCC       0.062950
     42 H12        175.2560   176.0840   187.1590 ha         1 FCC       0.132000
     43 H13        176.2720   176.1190   192.0350 ha         1 FCC       0.150000
     44 H14        176.9640   177.6300   188.0770 ha         1 FCC       0.135000
     45 H15        172.9280   177.4600   187.8200 ha         1 FCC       0.146750
     46 H16        174.3190   170.7560   189.5280 ha         1 FCC       0.146750
     47 H17        176.2260   172.9990   192.3120 ha         1 FCC       0.145000
     48 H18        176.2520   169.7560   190.6780 h4         1 FCC       0.019100
     49 H19        178.8120   172.5860   189.1600 h4         1 FCC       0.019100
     50 H20        176.3480   172.4860   194.7270 ha         1 FCC       0.136500
     51 H21        174.5330   173.2150   196.2400 ha         1 FCC       0.133000
@<TRIPOS>BOND
     1     1    12 ar  
     2     1    18 ar  
     3     1    27 1   
     4     2     6 ar  
     5     2    14 1   
     6     2    21 ar  
     7     3     7 ar  
     8     3    22 ar  
     9     3    27 1   
    10     4    18 ar  
    11     4    19 ar  
    12     4    31 1   
    13     5     9 ar  
    14     5    17 ar  
    15     5    32 1   
    16     6    24 ar  
    17     6    33 1   
    18     7    10 ar  
    19     7    34 1   
    20     8    20 ar  
    21     8    28 ar  
    22     8    35 1   
    23     9    28 ar  
    24     9    36 1   
    25    10    26 ar  
    26    10    37 1   
    27    11    12 1   
    28    11    13 1   
    29    11    14 1   
    30    11    15 1   
    31    12    16 ar  
    32    13    17 1   
    33    13    38 1   
    34    13    39 1   
    35    14    40 1   
    36    14    41 1   
    37    15    27 1   
    38    15    30 2   
    39    16    19 ar  
    40    16    42 1   
    41    17    20 ar  
    42    18    43 1   
    43    19    44 1   
    44    20    45 1   
    45    21    23 ar  
    46    21    46 1   
    47    22    25 ar  
    48    22    47 1   
    49    23    29 ar  
    50    23    48 1   
    51    24    29 ar  
    52    24    49 1   
    53    25    26 ar  
    54    25    50 1   
    55    26    51 1   
@<TRIPOS>SUBSTRUCTURE
     1 FCC         1 TEMP              0 ****  ****    0 ROOT
