@<TRIPOS>MOLECULE
FCC
   51    55     1     0     0
SMALL
No Charge or Current Charge


@<TRIPOS>ATOM
      1 C10        175.1110   175.2580   190.4690 ca         1 FCC      -0.012000
      2 C13        175.3960   172.2270   188.5610 ca         1 FCC      -0.050300
      3 C15        174.3110   174.1210   192.5670 ca         1 FCC      -0.051000
      4 C17        176.8120   176.9370   190.0750 ca         1 FCC      -0.076000
      5 C20        170.9010   175.8510   189.8640 ca         1 FCC      -0.153000
      6 C21        176.7240   172.6130   188.3010 ca         1 FCC      -0.153000
      7 C22        173.1450   173.8960   193.3310 ca         1 FCC      -0.098500
      8 C24        171.9100   178.3900   189.5840 ca         1 FCC       0.331150
      9 C26        170.4120   176.9450   190.5980 ca         1 FCC       0.331150
     10 C28        173.2320   173.6170   194.7060 ca         1 FCC      -0.105500
     11 C05        173.7450   174.1950   188.8220 c5         1 FCC      -0.075700
     12 C06        174.8730   175.1720   189.1100 ca         1 FCC      -0.139300
     13 C07        172.5260   174.8840   188.1430 c3         1 FCC      -0.011600
     14 C08        174.2160   172.9870   187.9600 c3         1 FCC      -0.011600
     15 C09        173.3440   173.7030   190.2570 c          1 FCC       0.577000
     16 C11        175.6100   175.9390   188.1930 ca         1 FCC      -0.064000
     17 C12        171.9500   176.0470   188.9470 ca         1 FCC      -0.050300
     18 C14        176.0620   176.1610   190.9820 ca         1 FCC      -0.131000
     19 C16        176.5920   176.8190   188.6860 ca         1 FCC      -0.143000
     20 C18        172.4550   177.3520   188.8090 ca         1 FCC      -0.153000
     21 C19        175.1970   171.1230   189.4090 ca         1 FCC      -0.153000
     22 C23        175.5680   174.0250   193.2060 ca         1 FCC      -0.098500
     23 C25        176.3100   170.4640   189.9600 ca         1 FCC       0.331150
     24 C27        177.7800   171.9000   188.8940 ca         1 FCC       0.331150
     25 C29        175.6530   173.7420   194.5800 ca         1 FCC      -0.105500
     26 C30        174.4850   173.5440   195.3330 ca         1 FCC      -0.104000
     27 N02        174.2060   174.3910   191.1490 n          1 FCC      -0.042000
     28 N03        170.9020   178.1990   190.4680 nb         1 FCC      -0.664000
     29 N04        177.5860   170.8400   189.7130 nb         1 FCC      -0.664000
     30 O01        172.5030   172.8620   190.5610 o          1 FCC      -0.518000
     31 H1         177.5550   177.6380   190.4480 ha         1 FCC       0.117000
     32 H2         170.4660   174.8670   190.0140 ha         1 FCC       0.128750
     33 H3         176.9440   173.4570   187.6550 ha         1 FCC       0.128750
     34 H4         172.1630   173.9610   192.8700 ha         1 FCC       0.127000
     35 H5         172.2900   179.4060   189.4940 h4         1 FCC       0.019100
     36 H6         169.6020   176.8130   191.3140 h4         1 FCC       0.019100
     37 H7         172.3250   173.4580   195.2860 ha         1 FCC       0.118500
     38 H8         171.7350   174.1430   187.9650 hc         1 FCC       0.062950
     39 H9         172.8140   175.2420   187.1470 hc         1 FCC       0.062950
     40 H10        174.4890   173.3380   186.9570 hc         1 FCC       0.062950
     41 H11        173.3800   172.2930   187.8060 hc         1 FCC       0.062950
     42 H12        175.4220   175.8620   187.1250 ha         1 FCC       0.114000
     43 H13        176.2090   176.2920   192.0500 ha         1 FCC       0.132000
     44 H14        177.1720   177.4240   187.9930 ha         1 FCC       0.117000
     45 H15        173.2640   177.5690   188.1180 ha         1 FCC       0.128750
     46 H16        174.1970   170.7730   189.6470 ha         1 FCC       0.128750
     47 H17        176.4890   174.1250   192.6370 ha         1 FCC       0.127000
     48 H18        176.1760   169.6090   190.6210 h4         1 FCC       0.019100
     49 H19        178.8140   172.1870   188.7080 h4         1 FCC       0.019100
     50 H20        176.6270   173.6670   195.0600 ha         1 FCC       0.118500
     51 H21        174.5520   173.3240   196.3960 ha         1 FCC       0.115000
@<TRIPOS>BOND
     1     1    12 ar  
     2     1    18 ar  
     3     1    27 1   
     4     2     6 ar  
     5     2    14 1   
     6     2    21 ar  
     7     3     7 ar  
     8     3    22 ar  
     9     3    27 1   
    10     4    18 ar  
    11     4    19 ar  
    12     4    31 1   
    13     5     9 ar  
    14     5    17 ar  
    15     5    32 1   
    16     6    24 ar  
    17     6    33 1   
    18     7    10 ar  
    19     7    34 1   
    20     8    20 ar  
    21     8    28 ar  
    22     8    35 1   
    23     9    28 ar  
    24     9    36 1   
    25    10    26 ar  
    26    10    37 1   
    27    11    12 1   
    28    11    13 1   
    29    11    14 1   
    30    11    15 1   
    31    12    16 ar  
    32    13    17 1   
    33    13    38 1   
    34    13    39 1   
    35    14    40 1   
    36    14    41 1   
    37    15    27 1   
    38    15    30 2   
    39    16    19 ar  
    40    16    42 1   
    41    17    20 ar  
    42    18    43 1   
    43    19    44 1   
    44    20    45 1   
    45    21    23 ar  
    46    21    46 1   
    47    22    25 ar  
    48    22    47 1   
    49    23    29 ar  
    50    23    48 1   
    51    24    29 ar  
    52    24    49 1   
    53    25    26 ar  
    54    25    50 1   
    55    26    51 1   
@<TRIPOS>SUBSTRUCTURE
     1 FCC         1 TEMP              0 ****  ****    0 ROOT
