@<TRIPOS>MOLECULE
FCD
   21    22     1     0     0
SMALL
No Charge or Current Charge


@<TRIPOS>ATOM
      1 OA           4.9110    -1.3420     3.4560 os         1 FCD      -0.188000
      2 CA           5.9050    -2.2010     3.8920 cc         1 FCD       0.133500
      3 C            7.0310    -1.7770     4.7910 c          1 FCD       0.628500
      4 OXT          7.8690    -2.6060     5.1260 o          1 FCD      -0.694500
      5 CB           5.6890    -3.4600     3.3730 cd         1 FCD      -0.225000
      6 CG           4.5180    -3.3960     2.5870 cd         1 FCD      -0.172000
      7 CD           4.0750    -2.1050     2.6770 cc         1 FCD       0.096500
      8 OB           7.0850    -0.6120     5.1660 o          1 FCD      -0.694500
      9 C1           2.9010    -1.5710     1.9820 ca         1 FCD      -0.061500
     10 C2           2.6360    -1.9890     0.6600 ca         1 FCD      -0.105000
     11 C3           1.5230    -1.4920    -0.0410 ca         1 FCD      -0.121000
     12 C4           0.6590    -0.5730     0.5730 ca         1 FCD      -0.124000
     13 C5           0.9070    -0.1550     1.8900 ca         1 FCD      -0.115000
     14 C6           2.0200    -0.6470     2.5950 ca         1 FCD       0.131000
     15 Cl2          2.2420    -0.1090     4.2620 cl         1 FCD      -0.176000
     16 HB           6.3110    -4.3340     3.5410 ha         1 FCD       0.139000
     17 HG           4.0580    -4.2050     2.0290 ha         1 FCD       0.112000
     18 H2           3.3010    -2.6940     0.1670 ha         1 FCD       0.118000
     19 H3           1.3330    -1.8200    -1.0610 ha         1 FCD       0.102000
     20 H4          -0.2030    -0.1900     0.0310 ha         1 FCD       0.101000
     21 H5           0.2320     0.5500     2.3690 ha         1 FCD       0.116000
@<TRIPOS>BOND
     1     1     2 1   
     2     1     7 1   
     3     2     3 1   
     4     2     5 2   
     5     3     4 1   
     6     3     8 1   
     7     5     6 1   
     8     5    16 1   
     9     6     7 2   
    10     6    17 1   
    11     7     9 1   
    12     9    10 ar  
    13     9    14 ar  
    14    10    11 ar  
    15    10    18 1   
    16    11    12 ar  
    17    11    19 1   
    18    12    13 ar  
    19    12    20 1   
    20    13    14 ar  
    21    13    21 1   
    22    14    15 1   
@<TRIPOS>SUBSTRUCTURE
     1 FCD         1 TEMP              0 ****  ****    0 ROOT
