@<TRIPOS>MOLECULE
FCD
   21    22     1     0     0
SMALL
abcg2


@<TRIPOS>ATOM
      1 OA           4.8710    -1.4700     3.4100 os         1 FCD      -0.188000
      2 CA           5.8710    -2.2570     3.8670 cc         1 FCD       0.133500
      3 C            6.9180    -1.6590     4.7620 c          1 FCD       0.628500
      4 OXT          7.7870    -2.4620     5.1500 o          1 FCD      -0.694500
      5 CB           5.7120    -3.5170     3.3780 cd         1 FCD      -0.225000
      6 CG           4.5440    -3.4940     2.5710 cd         1 FCD      -0.172000
      7 CD           4.0700    -2.2180     2.6300 cc         1 FCD       0.096500
      8 OB           6.8150    -0.4480     5.0170 o          1 FCD      -0.694500
      9 C1           2.9200    -1.6010     1.9800 ca         1 FCD      -0.061500
     10 C2           2.6190    -1.9780     0.6670 ca         1 FCD      -0.105000
     11 C3           1.5300    -1.4550    -0.0070 ca         1 FCD      -0.121000
     12 C4           0.7140    -0.5220     0.6180 ca         1 FCD      -0.124000
     13 C5           0.9860    -0.1330     1.9200 ca         1 FCD      -0.115000
     14 C6           2.0720    -0.6730     2.5920 ca         1 FCD       0.131000
     15 CL2          2.3120    -0.1990     4.2410 cl         1 FCD      -0.176000
     16 HB           6.3510    -4.3620     3.5740 ha         1 FCD       0.139000
     17 HG           4.1010    -4.3170     2.0320 ha         1 FCD       0.112000
     18 H2           3.2690    -2.6830     0.1670 ha         1 FCD       0.118000
     19 H3           1.3280    -1.7660    -1.0230 ha         1 FCD       0.102000
     20 H4          -0.1340    -0.0970     0.0990 ha         1 FCD       0.101000
     21 H5           0.3470     0.5830     2.4200 ha         1 FCD       0.116000
@<TRIPOS>BOND
     1     1     2 1   
     2     1     7 1   
     3     2     3 1   
     4     2     5 2   
     5     3     4 1   
     6     3     8 1   
     7     5     6 1   
     8     5    16 1   
     9     6     7 2   
    10     6    17 1   
    11     7     9 1   
    12     9    10 ar  
    13     9    14 ar  
    14    10    11 ar  
    15    10    18 1   
    16    11    12 ar  
    17    11    19 1   
    18    12    13 ar  
    19    12    20 1   
    20    13    14 ar  
    21    13    21 1   
    22    14    15 1   
@<TRIPOS>SUBSTRUCTURE
     1 FCD         1 TEMP              0 ****  ****    0 ROOT
