@<TRIPOS>MOLECULE
FCF
   38    39     1     0     0
SMALL
No Charge or Current Charge


@<TRIPOS>ATOM
      1 O40         -8.7960    -1.8190     0.3120 o          1 FCF      -0.717500
      2 C38         -7.6030    -1.8080     0.5820 c          1 FCF       0.714600
      3 O39         -7.0630    -2.6940     1.2300 o          1 FCF      -0.717500
      4 C5          -6.7560    -0.6460     0.0910 ca         1 FCF      -0.146600
      5 C6          -7.3360     0.4010    -0.6610 ca         1 FCF      -0.062000
      6 C1          -6.5500     1.4740    -1.1130 ca         1 FCF      -0.159000
      7 C4          -5.3710    -0.5890     0.3760 ca         1 FCF      -0.054000
      8 C3          -4.5750     0.4860    -0.0750 ca         1 FCF      -0.199900
      9 C2          -5.1780     1.5200    -0.8240 ca         1 FCF      -0.093000
     10 C17         -3.1130     0.4980     0.2550 ce         1 FCF       0.466800
     11 N18         -2.3270     1.4600    -0.1300 n2         1 FCF      -0.381700
     12 O21         -0.9840     1.3010     0.2760 os         1 FCF      -0.324000
     13 C22         -0.1820     2.4060    -0.1970 c3         1 FCF       0.171600
     14 C23          1.2740     2.2080     0.2800 c3         1 FCF       0.154600
     15 O27          1.8580     1.1080    -0.4490 os         1 FCF      -0.276000
     16 N31          3.1950     0.9110    -0.0480 n2         1 FCF      -0.321700
     17 C30          3.7840    -0.0720    -0.6620 ce         1 FCF       0.385500
     18 C16          5.1870    -0.4390    -0.3880 cc         1 FCF       0.061000
     19 N11          5.8990     0.2880     0.5600 ns         1 FCF      -0.509600
     20 C15          5.8820    -1.4620    -0.9940 cd         1 FCF      -0.369200
     21 C14          7.2800    -1.7640    -0.6640 c          1 FCF       0.591200
     22 O33          7.9240    -2.6600    -1.1810 o          1 FCF      -0.530000
     23 N13          7.8050    -0.9440     0.2850 ns         1 FCF      -0.472500
     24 C12          7.1940     0.0810     0.9300 c          1 FCF       0.620000
     25 O34          7.7530     0.7600     1.7680 o          1 FCF      -0.556000
     26 H6          -8.3980     0.3880    -0.8980 ha         1 FCF       0.129000
     27 H1          -7.0080     2.2730    -1.6910 ha         1 FCF       0.090000
     28 H4          -4.9070    -1.3860     0.9540 ha         1 FCF       0.129000
     29 H2          -4.5900     2.3610    -1.1850 ha         1 FCF       0.101000
     30 H17         -2.7360    -0.3440     0.8390 h4         1 FCF       0.000800
     31 H22         -0.2020     2.4710    -1.2930 h1         1 FCF       0.046700
     32 H22A        -0.5590     3.3540     0.2090 h1         1 FCF       0.046700
     33 H23          1.8360     3.1320     0.0920 h1         1 FCF       0.049200
     34 H23A         1.2830     2.0150     1.3610 h1         1 FCF       0.049200
     35 H30          3.2740    -0.6770    -1.4150 h4         1 FCF       0.035800
     36 HN13         8.7630    -1.1180     0.5410 hn         1 FCF       0.340500
     37 H13          5.4450     1.0570     1.0450 hn         1 FCF       0.479000
     38 H15          5.4400    -2.1020    -1.7490 ha         1 FCF       0.226000
@<TRIPOS>BOND
     1     1     2 1   
     2     2     3 1   
     3     2     4 1   
     4     4     5 ar  
     5     4     7 ar  
     6     5     6 ar  
     7     5    26 1   
     8     6     9 ar  
     9     6    27 1   
    10     7     8 ar  
    11     7    28 1   
    12     8     9 ar  
    13     8    10 1   
    14     9    29 1   
    15    10    11 2   
    16    10    30 1   
    17    11    12 1   
    18    12    13 1   
    19    13    14 1   
    20    13    31 1   
    21    13    32 1   
    22    14    15 1   
    23    14    33 1   
    24    14    34 1   
    25    15    16 1   
    26    16    17 2   
    27    17    18 1   
    28    17    35 1   
    29    18    19 1   
    30    18    20 2   
    31    19    24 1   
    32    19    37 1   
    33    20    21 1   
    34    20    38 1   
    35    21    22 2   
    36    21    23 1   
    37    23    24 1   
    38    23    36 1   
    39    24    25 2   
@<TRIPOS>SUBSTRUCTURE
     1 FCF         1 TEMP              0 ****  ****    0 ROOT
