@<TRIPOS>MOLECULE
FCF
   38    39     1     0     0
SMALL
abcg2


@<TRIPOS>ATOM
      1 O40         -8.4920    -1.9110     0.2520 o          1 FCF      -0.717500
      2 C38         -7.2750    -1.9120     0.5140 c          1 FCF       0.714600
      3 O39         -6.6340    -2.8080     1.0960 o          1 FCF      -0.717500
      4 C5          -6.4840    -0.6840     0.0740 ca         1 FCF      -0.146600
      5 C6          -7.1080     0.3700    -0.5830 ca         1 FCF      -0.062000
      6 C1          -6.3810     1.4850    -0.9870 ca         1 FCF      -0.159000
      7 C4          -5.1170    -0.5970     0.3190 ca         1 FCF      -0.054000
      8 C3          -4.3760     0.5130    -0.0800 ca         1 FCF      -0.199900
      9 C2          -5.0220     1.5620    -0.7410 ca         1 FCF      -0.093000
     10 C17         -2.9430     0.5320     0.2080 ce         1 FCF       0.466800
     11 N18         -2.2160     1.5140    -0.1370 n2         1 FCF      -0.381700
     12 O21         -0.9110     1.3490     0.2210 os         1 FCF      -0.324000
     13 C22         -0.1450     2.4540    -0.2240 c3         1 FCF       0.171600
     14 C23          1.2780     2.2540     0.2160 c3         1 FCF       0.154600
     15 O27          1.8020     1.1200    -0.4730 os         1 FCF      -0.276000
     16 N31          3.0700     0.8860    -0.1070 n2         1 FCF      -0.321700
     17 C30          3.5950    -0.1090    -0.6940 ce         1 FCF       0.385500
     18 C16          4.9720    -0.4510    -0.3650 cc         1 FCF       0.061000
     19 N11          5.6170     0.3260     0.5520 ns         1 FCF      -0.509600
     20 C15          5.5890    -1.5010    -0.9470 cd         1 FCF      -0.369200
     21 C14          6.9550    -1.8150    -0.5990 c          1 FCF       0.591200
     22 O33          7.6050    -2.7350    -1.0610 o          1 FCF      -0.530000
     23 N13          7.5110    -0.9610     0.3410 ns         1 FCF      -0.472500
     24 C12          6.9100     0.1140     0.9480 c          1 FCF       0.620000
     25 O34          7.4750     0.8130     1.7610 o          1 FCF      -0.556000
     26 H6          -8.1700     0.3190    -0.7830 ha         1 FCF       0.129000
     27 H1          -6.8790     2.2990    -1.4980 ha         1 FCF       0.090000
     28 H4          -4.6200    -1.4140     0.8290 ha         1 FCF       0.129000
     29 H2          -4.4610     2.4310    -1.0600 ha         1 FCF       0.101000
     30 H17         -2.5270    -0.3320     0.7270 h4         1 FCF       0.000800
     31 H22         -0.2050     2.5560    -1.3130 h1         1 FCF       0.046700
     32 H22A        -0.5070     3.3860     0.2200 h1         1 FCF       0.046700
     33 H23          1.8490     3.1500    -0.0380 h1         1 FCF       0.049200
     34 H23A         1.3400     2.1010     1.2970 h1         1 FCF       0.049200
     35 H30          3.0800    -0.7230    -1.4270 h4         1 FCF       0.035800
     36 HN13         8.4690    -1.1410     0.6150 hn         1 FCF       0.340500
     37 H13          5.1240     1.1040     0.9690 hn         1 FCF       0.479000
     38 H15          5.0770    -2.1160    -1.6720 ha         1 FCF       0.226000
@<TRIPOS>BOND
     1     1     2 1   
     2     2     3 1   
     3     2     4 1   
     4     4     5 ar  
     5     4     7 ar  
     6     5     6 ar  
     7     5    26 1   
     8     6     9 ar  
     9     6    27 1   
    10     7     8 ar  
    11     7    28 1   
    12     8     9 ar  
    13     8    10 1   
    14     9    29 1   
    15    10    11 2   
    16    10    30 1   
    17    11    12 1   
    18    12    13 1   
    19    13    14 1   
    20    13    31 1   
    21    13    32 1   
    22    14    15 1   
    23    14    33 1   
    24    14    34 1   
    25    15    16 1   
    26    16    17 2   
    27    17    18 1   
    28    17    35 1   
    29    18    19 1   
    30    18    20 2   
    31    19    24 1   
    32    19    37 1   
    33    20    21 1   
    34    20    38 1   
    35    21    22 2   
    36    21    23 1   
    37    23    24 1   
    38    23    36 1   
    39    24    25 2   
@<TRIPOS>SUBSTRUCTURE
     1 FCF         1 TEMP              0 ****  ****    0 ROOT
