@<TRIPOS>MOLECULE
FCH
   48    49     1     0     0
SMALL
No Charge or Current Charge


@<TRIPOS>ATOM
      1 C11          6.1590     0.4030    -1.3680 c6         1 FCH      -0.072900
      2 N11          1.8590     0.1620    -0.0170 n7         1 FCH      -0.852400
      3 C12          2.9650     0.0150     0.9460 c3         1 FCH       0.161800
      4 C13          4.3120    -0.3460     0.2550 c6         1 FCH      -0.062700
      5 C14          5.4040    -0.6730     1.3120 c6         1 FCH      -0.071900
      6 C15          4.8090     0.7770    -0.7050 c6         1 FCH      -0.071900
      7 C16          0.5430     0.5050     0.5860 c3         1 FCH       0.119800
      8 C17         -0.5810     0.4150    -0.4830 c3         1 FCH       0.129300
      9 C18          7.2350     0.0720    -0.3070 c6         1 FCH      -0.075400
     10 O18         -0.2600    -0.7290    -1.2820 oh         1 FCH      -0.640000
     11 C19         -2.0250     0.3100     0.1190 c3         1 FCH       0.139500
     12 C20          6.7520    -1.0470     0.6450 c6         1 FCH      -0.072900
     13 N20         -2.3400     1.4570     1.0150 n8         1 FCH      -0.998200
     14 C32         -3.1220     0.1680    -0.9770 c3         1 FCH      -0.019100
     15 C33         -5.5260     0.9230    -0.5710 ca         1 FCH      -0.099000
     16 C34         -6.8230     0.7010    -0.0740 ca         1 FCH      -0.113000
     17 C35         -7.1310    -0.5090     0.5700 ca         1 FCH      -0.112000
     18 C36         -6.1430    -1.4970     0.7160 ca         1 FCH      -0.113000
     19 C37         -4.8470    -1.2750     0.2190 ca         1 FCH      -0.099000
     20 C38         -4.5280    -0.0620    -0.4250 ca         1 FCH      -0.065300
     21 H11          6.0170    -0.4610    -2.0330 hc         1 FCH       0.039700
     22 H11A         6.5030     1.2300    -2.0030 hc         1 FCH       0.039700
     23 H12          3.1020     0.9450     1.5150 h1         1 FCH       0.026700
     24 H12A         2.7230    -0.7790     1.6650 h1         1 FCH       0.026700
     25 H13          4.1220    -1.2550    -0.3350 hc         1 FCH       0.062700
     26 H14          5.5510     0.1910     1.9750 hc         1 FCH       0.037450
     27 H14A         5.0710    -1.5020     1.9510 hc         1 FCH       0.037450
     28 H15          4.9220     1.7180    -0.1500 hc         1 FCH       0.037450
     29 H15A         4.0660     0.9660    -1.4910 hc         1 FCH       0.037450
     30 H16          0.3120    -0.2000     1.3960 h1         1 FCH       0.030200
     31 H16A         0.5650     1.5150     1.0200 h1         1 FCH       0.030200
     32 H17         -0.5270     1.3190    -1.1060 h1         1 FCH       0.064700
     33 H18          8.1660    -0.2350    -0.8020 hc         1 FCH       0.038200
     34 H18A         7.4730     0.9750     0.2730 hc         1 FCH       0.038200
     35 HO18         0.7000    -0.8520    -1.0660 ho         1 FCH       0.447000
     36 H19         -2.0550    -0.6010     0.7350 h1         1 FCH       0.060700
     37 H20          7.5100    -1.2330     1.4180 hc         1 FCH       0.039700
     38 H20A         6.6390    -1.9870     0.0860 hc         1 FCH       0.039700
     39 HN20        -1.6100     1.5470     1.7300 hn         1 FCH       0.396000
     40 H32         -3.1020     1.0580    -1.6190 hc         1 FCH       0.054700
     41 H32A        -2.8680    -0.6740    -1.6320 hc         1 FCH       0.054700
     42 H34         -7.5870     1.4660    -0.1890 ha         1 FCH       0.109000
     43 H35         -8.1350    -0.6810     0.9540 ha         1 FCH       0.109000
     44 H36         -6.3810    -2.4350     1.2120 ha         1 FCH       0.109000
     45 H37         -4.0890    -2.0470     0.3320 ha         1 FCH       0.108000
     46 H2           2.1180     0.9120    -0.6710 hn         1 FCH       0.413000
     47 H1          -2.2760     2.3330     0.4840 hn         1 FCH       0.396000
     48 H33         -5.2980     1.8630    -1.0680 ha         1 FCH       0.108000
@<TRIPOS>BOND
     1     1     6 1   
     2     1     9 1   
     3     1    21 1   
     4     1    22 1   
     5     2     3 1   
     6     2     7 1   
     7     2    46 1   
     8     3     4 1   
     9     3    23 1   
    10     3    24 1   
    11     4     5 1   
    12     4     6 1   
    13     4    25 1   
    14     5    12 1   
    15     5    26 1   
    16     5    27 1   
    17     6    28 1   
    18     6    29 1   
    19     7     8 1   
    20     7    30 1   
    21     7    31 1   
    22     8    10 1   
    23     8    11 1   
    24     8    32 1   
    25     9    12 1   
    26     9    33 1   
    27     9    34 1   
    28    10    35 1   
    29    11    13 1   
    30    11    14 1   
    31    11    36 1   
    32    12    37 1   
    33    12    38 1   
    34    13    39 1   
    35    13    47 1   
    36    14    20 1   
    37    14    40 1   
    38    14    41 1   
    39    15    16 ar  
    40    15    20 ar  
    41    15    48 1   
    42    16    17 ar  
    43    16    42 1   
    44    17    18 ar  
    45    17    43 1   
    46    18    19 ar  
    47    18    44 1   
    48    19    20 ar  
    49    19    45 1   
@<TRIPOS>SUBSTRUCTURE
     1 FCH         1 TEMP              0 ****  ****    0 ROOT
