@<TRIPOS>MOLECULE
FCH
   48    49     1     0     0
SMALL
abcg2


@<TRIPOS>ATOM
      1 C11          6.0950     0.3430    -1.3750 c6         1 FCH      -0.072900
      2 N11          1.8630    -0.1060    -0.1170 n7         1 FCH      -0.852400
      3 C12          2.9270    -0.0090     0.8640 c3         1 FCH       0.161800
      4 C13          4.3010    -0.3180     0.2820 c6         1 FCH      -0.062700
      5 C14          5.3580    -0.3060     1.3880 c6         1 FCH      -0.071900
      6 C15          4.7020     0.6490    -0.8330 c6         1 FCH      -0.071900
      7 C16          0.5540     0.1020     0.4680 c3         1 FCH       0.119800
      8 C17         -0.5540     0.0590    -0.5810 c3         1 FCH       0.129300
      9 C18          7.1400     0.3530    -0.2660 c6         1 FCH      -0.075400
     10 O18         -0.4460    -1.0870    -1.3980 oh         1 FCH      -0.640000
     11 C19         -1.9540     0.1620     0.0630 c3         1 FCH       0.139500
     12 C20          6.7550    -0.6070     0.8550 c6         1 FCH      -0.072900
     13 N20         -2.1390     1.3210     0.9170 n8         1 FCH      -0.998200
     14 C32         -3.0450     0.1560    -1.0140 c3         1 FCH      -0.019100
     15 C33         -5.1980     1.1400    -0.1340 ca         1 FCH      -0.099000
     16 C34         -6.4680     1.0050     0.4130 ca         1 FCH      -0.113000
     17 C35         -6.9860    -0.2580     0.6710 ca         1 FCH      -0.112000
     18 C36         -6.2270    -1.3810     0.3720 ca         1 FCH      -0.113000
     19 C37         -4.9600    -1.2390    -0.1800 ca         1 FCH      -0.099000
     20 C38         -4.4260     0.0220    -0.4410 ca         1 FCH      -0.065300
     21 H11          6.0840    -0.6430    -1.8520 hc         1 FCH       0.039700
     22 H11A         6.3590     1.0610    -2.1550 hc         1 FCH       0.039700
     23 H12          2.9600     0.9800     1.3560 h1         1 FCH       0.026700
     24 H12A         2.7150    -0.7320     1.6580 h1         1 FCH       0.026700
     25 H13          4.2640    -1.3290    -0.1440 hc         1 FCH       0.062700
     26 H14          5.3600     0.6800     1.8690 hc         1 FCH       0.037450
     27 H14A         5.0900    -1.0280     2.1650 hc         1 FCH       0.037450
     28 H15          4.6790     1.6740    -0.4420 hc         1 FCH       0.037450
     29 H15A         3.9810     0.6140    -1.6550 hc         1 FCH       0.037450
     30 H16          0.3790    -0.6910     1.2080 h1         1 FCH       0.030200
     31 H16A         0.4920     1.0520     1.0180 h1         1 FCH       0.030200
     32 H17         -0.4280     0.9160    -1.2570 h1         1 FCH       0.064700
     33 H18          8.1230     0.0930    -0.6670 hc         1 FCH       0.038200
     34 H18A         7.2280     1.3670     0.1410 hc         1 FCH       0.038200
     35 HO18        -0.3190    -1.8530    -0.8280 ho         1 FCH       0.447000
     36 H19         -2.0890    -0.7260     0.6940 h1         1 FCH       0.060700
     37 H20          7.4840    -0.5560     1.6670 hc         1 FCH       0.039700
     38 H20A         6.7840    -1.6350     0.4760 hc         1 FCH       0.039700
     39 HN20        -1.5270     1.2830     1.7210 hn         1 FCH       0.396000
     40 H32         -2.9700     1.0820    -1.5940 hc         1 FCH       0.054700
     41 H32A        -2.8600    -0.6630    -1.7100 hc         1 FCH       0.054700
     42 H34         -7.0520     1.8880     0.6390 ha         1 FCH       0.109000
     43 H35         -7.9750    -0.3660     1.0980 ha         1 FCH       0.109000
     44 H36         -6.6230    -2.3710     0.5630 ha         1 FCH       0.109000
     45 H37         -4.3800    -2.1240    -0.4160 ha         1 FCH       0.108000
     46 H2           2.0080     0.5940    -0.8360 hn         1 FCH       0.413000
     47 H1          -1.9070     2.1710     0.4160 hn         1 FCH       0.396000
     48 H33         -4.8040     2.1290    -0.3320 ha         1 FCH       0.108000
@<TRIPOS>BOND
     1     1     6 1   
     2     1     9 1   
     3     1    21 1   
     4     1    22 1   
     5     2     3 1   
     6     2     7 1   
     7     2    46 1   
     8     3     4 1   
     9     3    23 1   
    10     3    24 1   
    11     4     5 1   
    12     4     6 1   
    13     4    25 1   
    14     5    12 1   
    15     5    26 1   
    16     5    27 1   
    17     6    28 1   
    18     6    29 1   
    19     7     8 1   
    20     7    30 1   
    21     7    31 1   
    22     8    10 1   
    23     8    11 1   
    24     8    32 1   
    25     9    12 1   
    26     9    33 1   
    27     9    34 1   
    28    10    35 1   
    29    11    13 1   
    30    11    14 1   
    31    11    36 1   
    32    12    37 1   
    33    12    38 1   
    34    13    39 1   
    35    13    47 1   
    36    14    20 1   
    37    14    40 1   
    38    14    41 1   
    39    15    16 ar  
    40    15    20 ar  
    41    15    48 1   
    42    16    17 ar  
    43    16    42 1   
    44    17    18 ar  
    45    17    43 1   
    46    18    19 ar  
    47    18    44 1   
    48    19    20 ar  
    49    19    45 1   
@<TRIPOS>SUBSTRUCTURE
     1 FCH         1 TEMP              0 ****  ****    0 ROOT
