@<TRIPOS>MOLECULE
FCJ
   44    46     1     0     0
SMALL
bcc


@<TRIPOS>ATOM
      1 C8           3.1720     0.1550    -0.8830 cc         1 FCJ       0.424700
      2 PA          -2.0960     2.2310    -1.0450 p5         1 FCJ       1.469800
      3 O1A         -1.4820     1.8050    -2.3440 o          1 FCJ      -0.890000
      4 O2A         -3.0550     3.3870    -1.0180 o          1 FCJ      -0.890000
      5 O3A         -2.8040     1.0230    -0.2440 os         1 FCJ      -0.716800
      6 PB          -2.6340    -0.6640    -0.3830 p5         1 FCJ       1.370600
      7 O2B         -3.0730    -1.0290    -1.7760 o          1 FCJ      -0.884500
      8 O1B         -3.4550    -1.1440     0.7870 o          1 FCJ      -0.884500
      9 C3B         -0.8660    -0.9280    -0.1320 c3         1 FCJ      -0.481800
     10 PG          -0.4070    -2.6880     0.3250 p5         1 FCJ       1.209700
     11 O1G          1.1050    -2.7780     0.0970 o          1 FCJ      -0.964167
     12 O2G         -0.8220    -2.8600     1.7910 o          1 FCJ      -0.964167
     13 O3G         -1.2180    -3.5700    -0.6400 o          1 FCJ      -0.964167
     14 C5           0.3900     2.9210    -0.4310 c3         1 FCJ       0.225400
     15 C4           1.3720     2.9140     0.7170 c5         1 FCJ       0.136100
     16 O4           1.4950     1.6040     1.2570 os         1 FCJ      -0.310600
     17 C1           2.8350     1.2190     1.3980 c5         1 FCJ       0.272800
     18 N9           3.1590     0.1390     0.4850 na         1 FCJ      -0.265000
     19 C9           3.5120    -1.1290     0.8460 ca         1 FCJ       0.513800
     20 N3           3.6270    -1.6310     2.0710 nb         1 FCJ      -0.751000
     21 C2           3.9720    -2.9040     2.0460 ca         1 FCJ       0.710900
     22 N1           4.2190    -3.6750     0.9890 nb         1 FCJ      -0.854000
     23 C6           4.0930    -3.1500    -0.2320 ca         1 FCJ       0.806200
     24 N6           4.2940    -3.9360    -1.3010 nv         1 FCJ      -0.951500
     25 C7           3.7450    -1.7980    -0.3400 ca         1 FCJ      -0.136200
     26 N7           3.5250    -0.9780    -1.4130 nd         1 FCJ      -0.566100
     27 C10          3.6640     2.4810     1.1820 c5         1 FCJ      -0.172400
     28 C3           2.7780     3.3350     0.2810 c5         1 FCJ       0.086100
     29 O3           2.9250     4.7200     0.4350 oh         1 FCJ      -0.590800
     30 H1           2.9210     1.0400    -1.4480 h5         1 FCJ       0.044800
     31 H4          -0.3510    -0.6340    -1.0500 hc         1 FCJ       0.029200
     32 H5          -0.4820    -0.2510     0.6330 hc         1 FCJ       0.029200
     33 H8           0.7370     2.2320    -1.2070 h1         1 FCJ       0.005700
     34 H9           0.3950     3.9280    -0.8700 h1         1 FCJ       0.005700
     35 H10          1.0290     3.5940     1.5080 h1         1 FCJ       0.051700
     36 H11          2.9930     0.8010     2.3940 h2         1 FCJ       0.096700
     37 H12          4.0870    -3.3870     3.0110 h5         1 FCJ      -0.004900
     38 H13          4.7050    -4.8450    -1.1720 hn         1 FCJ       0.408300
     39 H14          4.3570    -3.5300    -2.2170 hn         1 FCJ       0.408300
     40 H15          3.7880     2.9890     2.1400 hc         1 FCJ       0.035700
     41 H16          4.6530     2.2760     0.7750 hc         1 FCJ       0.035700
     42 H17          2.9340     3.0530    -0.7710 h1         1 FCJ       0.043700
     43 H18          3.7480     4.9870     0.0160 ho         1 FCJ       0.367000
     44 O5          -0.8850     2.5680     0.0370 os         1 FCJ      -0.547200
@<TRIPOS>BOND
     1     1    18 1   
     2     1    26 2   
     3     1    30 1   
     4     2     3 1   
     5     2     4 1   
     6     2     5 1   
     7     2    44 1   
     8     5     6 1   
     9     6     7 1   
    10     6     8 1   
    11     6     9 1   
    12     9    10 1   
    13     9    31 1   
    14     9    32 1   
    15    10    11 1   
    16    10    12 1   
    17    10    13 1   
    18    14    15 1   
    19    14    33 1   
    20    14    34 1   
    21    14    44 1   
    22    15    16 1   
    23    15    28 1   
    24    15    35 1   
    25    16    17 1   
    26    17    18 1   
    27    17    27 1   
    28    17    36 1   
    29    18    19 1   
    30    19    20 ar  
    31    19    25 ar  
    32    20    21 ar  
    33    21    22 ar  
    34    21    37 1   
    35    22    23 ar  
    36    23    24 1   
    37    23    25 ar  
    38    24    38 1   
    39    24    39 1   
    40    25    26 1   
    41    27    28 1   
    42    27    40 1   
    43    27    41 1   
    44    28    29 1   
    45    28    42 1   
    46    29    43 1   
@<TRIPOS>SUBSTRUCTURE
     1 FCJ         1 TEMP              0 ****  ****    0 ROOT
