@<TRIPOS>MOLECULE
FCJ
   44    46     1     0     0
SMALL
No Charge or Current Charge


@<TRIPOS>ATOM
      1 C8           4.6710     0.2580    -0.8080 cc         1 FCJ       0.424700
      2 PA          -2.2740     1.8100     0.5500 p5         1 FCJ       1.469800
      3 O1A         -2.7120     2.9100    -0.3600 o          1 FCJ      -0.890000
      4 O2A         -3.1510     1.7040     1.7550 o          1 FCJ      -0.890000
      5 O3A         -2.0030     0.4110    -0.1260 os         1 FCJ      -0.716800
      6 PB          -3.0950     0.0600    -1.2090 p5         1 FCJ       1.528400
      7 O2B         -2.8080     0.7550    -2.5040 o          1 FCJ      -0.884500
      8 O1B         -4.5230     0.1900    -0.7890 o          1 FCJ      -0.884500
      9 C3B         -2.6000    -1.6220    -1.5510 c3         1 FCJ      -0.797400
     10 PG          -3.3690    -2.6390    -0.3310 p5         1 FCJ       1.367500
     11 O1G         -2.6350    -3.9320    -0.4200 o          1 FCJ      -0.964167
     12 O2G         -3.2620    -2.1040     1.0510 o          1 FCJ      -0.964167
     13 O3G         -4.7800    -2.8930    -0.7320 o          1 FCJ      -0.964167
     14 C5           0.2000     2.5020     0.0540 c3         1 FCJ       0.248600
     15 C4           1.5960     2.5890     0.7240 c5         1 FCJ       0.159300
     16 O4           2.1370     1.2730     0.9690 os         1 FCJ      -0.357000
     17 C1           3.5590     1.4010     1.1800 c5         1 FCJ       0.325300
     18 N9           4.2170     0.2800     0.5140 na         1 FCJ      -0.294300
     19 C9           4.5250    -0.9270     1.0720 ca         1 FCJ       0.185500
     20 N3           4.3170    -1.4320     2.3050 nb         1 FCJ      -0.225000
     21 C2           4.7680    -2.6930     2.5040 ca         1 FCJ       0.184900
     22 N1           5.3990    -3.4820     1.6020 nb         1 FCJ      -0.328000
     23 C6           5.5940    -2.9480     0.3850 ca         1 FCJ       0.477900
     24 N6           6.2290    -3.7530    -0.5150 nv         1 FCJ      -1.061900
     25 C7           5.1550    -1.6390     0.0820 ca         1 FCJ      -0.005600
     26 N7           5.2580    -0.9150    -1.1120 nd         1 FCJ      -0.566100
     27 C10          3.9360     2.8360     0.6870 c5         1 FCJ      -0.172400
     28 C3           2.7020     3.2300    -0.1570 c5         1 FCJ       0.109300
     29 O3           2.5850     4.6470    -0.2910 oh         1 FCJ      -0.713000
     30 H1           4.5460     1.0970    -1.4820 h5         1 FCJ       0.044800
     31 H4          -2.9360    -1.9160    -2.5480 hc         1 FCJ       0.029200
     32 H5          -1.5130    -1.7090    -1.4990 hc         1 FCJ       0.029200
     33 H8           0.2440     1.8010    -0.7900 h1         1 FCJ       0.005700
     34 H9          -0.0640     3.4940    -0.3360 h1         1 FCJ       0.005700
     35 H10          1.5020     3.1200     1.6820 h1         1 FCJ       0.051700
     36 H11          3.7880     1.3020     2.2490 h2         1 FCJ       0.096700
     37 H12          4.6070    -3.1160     3.4930 h5         1 FCJ      -0.004900
     38 H13          6.2730    -4.7490    -0.3160 hn         1 FCJ       0.463500
     39 H14          6.2070    -3.4730    -1.4920 hn         1 FCJ       0.463500
     40 H15          4.0650     3.5050     1.5470 hc         1 FCJ       0.035700
     41 H16          4.8720     2.8710     0.1180 hc         1 FCJ       0.035700
     42 H17          2.7290     2.7490    -1.1460 h1         1 FCJ       0.043700
     43 H18          3.4040     4.9620    -0.7380 ho         1 FCJ       0.466000
     44 O5          -0.7610     2.0830     1.0310 os         1 FCJ      -0.570400
@<TRIPOS>BOND
     1     1    18 1   
     2     1    26 2   
     3     1    30 1   
     4     2     3 1   
     5     2     4 1   
     6     2     5 1   
     7     2    44 1   
     8     5     6 1   
     9     6     7 1   
    10     6     8 1   
    11     6     9 1   
    12     9    10 1   
    13     9    31 1   
    14     9    32 1   
    15    10    11 1   
    16    10    12 1   
    17    10    13 1   
    18    14    15 1   
    19    14    33 1   
    20    14    34 1   
    21    14    44 1   
    22    15    16 1   
    23    15    28 1   
    24    15    35 1   
    25    16    17 1   
    26    17    18 1   
    27    17    27 1   
    28    17    36 1   
    29    18    19 1   
    30    19    20 ar  
    31    19    25 ar  
    32    20    21 ar  
    33    21    22 ar  
    34    21    37 1   
    35    22    23 ar  
    36    23    24 1   
    37    23    25 ar  
    38    24    38 1   
    39    24    39 1   
    40    25    26 1   
    41    27    28 1   
    42    27    40 1   
    43    27    41 1   
    44    28    29 1   
    45    28    42 1   
    46    29    43 1   
@<TRIPOS>SUBSTRUCTURE
     1 FCJ         1 TEMP              0 ****  ****    0 ROOT
