@<TRIPOS>MOLECULE
FCK
   42    43     1     0     0
SMALL
No Charge or Current Charge


@<TRIPOS>ATOM
      1 C1          -6.8910     1.2660     1.7480 ca         1 FCK      -0.154000
      2 C2          -5.6700     1.6820     1.1960 ca         1 FCK      -0.111000
      3 C3          -5.1610     1.0480     0.0480 ca         1 FCK      -0.138300
      4 C4          -5.8880    -0.0070    -0.5420 ca         1 FCK      -0.077000
      5 C5          -7.1220    -0.4380     0.0030 ca         1 FCK      -0.139600
      6 C6          -7.6130     0.2150     1.1580 ca         1 FCK      -0.079000
      7 C7          -1.3900     1.1090    -0.4710 c3         1 FCK       0.165800
      8 O39         -7.4460    -2.1070    -1.6410 o          1 FCK      -0.722000
      9 C38         -7.9010    -1.5760    -0.6380 c          1 FCK       0.712600
     10 O40         -8.9590    -1.9210    -0.1290 o          1 FCK      -0.722000
     11 C17         -3.8400     1.5020    -0.5570 c3         1 FCK       0.216100
     12 N18         -2.7180     0.7920     0.0770 n7         1 FCK      -0.862400
     13 C22         -0.3020     0.3240     0.2840 c3         1 FCK      -0.091400
     14 C23          1.1130     0.6290    -0.2410 c3         1 FCK       0.162600
     15 O27          2.0440    -0.1520     0.5290 os         1 FCK      -0.293000
     16 N31          3.3620     0.0870     0.0910 n2         1 FCK      -0.313700
     17 C30          4.2610    -0.5870     0.7440 ce         1 FCK       0.381500
     18 C16          5.7000    -0.4780     0.4380 cc         1 FCK       0.062000
     19 N11          6.1070     0.3750    -0.5830 ns         1 FCK      -0.509600
     20 C15          6.7120    -1.1560     1.0810 cd         1 FCK      -0.371200
     21 C14          8.1240    -0.9910     0.7150 c          1 FCK       0.591200
     22 O33          9.0420    -1.5740     1.2630 o          1 FCK      -0.531000
     23 N13          8.3230    -0.1150    -0.3050 ns         1 FCK      -0.472500
     24 C12          7.3890     0.5910    -0.9900 c          1 FCK       0.620000
     25 O34          7.6700     1.3550    -1.8930 o          1 FCK      -0.552000
     26 H1          -7.2800     1.7590     2.6360 ha         1 FCK       0.085000
     27 H2          -5.1170     2.4960     1.6600 ha         1 FCK       0.091000
     28 H4          -5.4880    -0.4920    -1.4300 ha         1 FCK       0.123000
     29 H6          -8.5580    -0.0910     1.6030 ha         1 FCK       0.126000
     30 H7          -1.3450     0.8500    -1.5380 h1         1 FCK       0.023200
     31 H7A         -1.1860     2.1840    -0.3770 h1         1 FCK       0.023200
     32 H17         -3.8540     1.3060    -1.6390 h1         1 FCK       0.025700
     33 H17A        -3.7320     2.5870    -0.4220 h1         1 FCK       0.025700
     34 HN18        -2.8860    -0.2130    -0.0410 hn         1 FCK       0.415000
     35 H22         -0.3500     0.5740     1.3510 hc         1 FCK       0.062200
     36 H22A        -0.4950    -0.7510     0.1900 hc         1 FCK       0.062200
     37 H23          1.1740     0.3680    -1.3060 h1         1 FCK       0.043200
     38 H23A         1.3220     1.7020    -0.1320 h1         1 FCK       0.043200
     39 HN13         9.2790     0.0270    -0.5870 hn         1 FCK       0.341500
     40 H30          4.0000    -1.2720     1.5540 h4         1 FCK       0.031800
     41 H171         5.4110     0.9060    -1.0990 hn         1 FCK       0.480000
     42 H15          6.5260    -1.8490     1.8930 ha         1 FCK       0.223000
@<TRIPOS>BOND
     1     1     2 ar  
     2     1     6 ar  
     3     1    26 1   
     4     2     3 ar  
     5     2    27 1   
     6     3     4 ar  
     7     3    11 1   
     8     4     5 ar  
     9     4    28 1   
    10     5     6 ar  
    11     5     9 1   
    12     6    29 1   
    13     7    12 1   
    14     7    13 1   
    15     7    30 1   
    16     7    31 1   
    17     8     9 1   
    18     9    10 1   
    19    11    12 1   
    20    11    32 1   
    21    11    33 1   
    22    12    34 1   
    23    13    14 1   
    24    13    35 1   
    25    13    36 1   
    26    14    15 1   
    27    14    37 1   
    28    14    38 1   
    29    15    16 1   
    30    16    17 2   
    31    17    18 1   
    32    17    40 1   
    33    18    19 1   
    34    18    20 2   
    35    19    24 1   
    36    19    41 1   
    37    20    21 1   
    38    20    42 1   
    39    21    22 2   
    40    21    23 1   
    41    23    24 1   
    42    23    39 1   
    43    24    25 2   
@<TRIPOS>SUBSTRUCTURE
     1 FCK         1 TEMP              0 ****  ****    0 ROOT
