@<TRIPOS>MOLECULE
FCK
   42    43     1     0     0
SMALL
bcc


@<TRIPOS>ATOM
      1 C1          -6.5260     1.0030     1.8730 ca         1 FCK      -0.172000
      2 C2          -5.3000     1.2790     1.2880 ca         1 FCK      -0.129000
      3 C3          -5.0300     0.8550    -0.0130 ca         1 FCK      -0.138300
      4 C4          -6.0060     0.1440    -0.7000 ca         1 FCK      -0.095000
      5 C5          -7.2440    -0.1430    -0.1260 ca         1 FCK      -0.139600
      6 C6          -7.4940     0.2960     1.1690 ca         1 FCK      -0.097000
      7 C7          -1.3090     0.8470    -0.4340 c3         1 FCK       0.165800
      8 O39         -7.9840    -1.2930    -2.0530 o          1 FCK      -0.827300
      9 C38         -8.2980    -0.9230    -0.9040 c          1 FCK       0.923200
     10 O40         -9.3830    -1.1250    -0.3260 o          1 FCK      -0.827300
     11 C17         -3.6970     1.1550    -0.6430 c3         1 FCK       0.216100
     12 N18         -2.6190     0.5290     0.1000 n7         1 FCK      -0.807200
     13 C22         -0.2180     0.1690     0.3820 c3         1 FCK      -0.091400
     14 C23          1.1540     0.5250    -0.1460 c3         1 FCK       0.139400
     15 O27          2.1190    -0.1190     0.6870 os         1 FCK      -0.171300
     16 N31          3.3590     0.0620     0.2140 n2         1 FCK      -0.412200
     17 C30          4.2660    -0.4470     0.9430 ce         1 FCK       0.381500
     18 C16          5.6490    -0.3140     0.5080 cc         1 FCK       0.062000
     19 N11          5.8820     0.3350    -0.6690 ns         1 FCK      -0.463100
     20 C15          6.6660    -0.8140     1.2420 cd         1 FCK      -0.321200
     21 C14          8.0260    -0.6660     0.7790 c          1 FCK       0.733700
     22 O33          9.0150    -1.0790     1.3570 o          1 FCK      -0.606500
     23 N13          8.1440     0.0060    -0.4280 ns         1 FCK      -0.606500
     24 C12          7.1310     0.5270    -1.1940 c          1 FCK       0.829500
     25 O34          7.3250     1.1050    -2.2420 o          1 FCK      -0.627500
     26 H1          -6.7310     1.3430     2.8810 ha         1 FCK       0.103000
     27 H2          -4.5470     1.8310     1.8390 ha         1 FCK       0.109000
     28 H4          -5.8040    -0.2000    -1.7070 ha         1 FCK       0.141000
     29 H6          -8.4500     0.0830     1.6290 ha         1 FCK       0.144000
     30 H7          -1.2020     0.5710    -1.4950 h1         1 FCK       0.023200
     31 H7A         -1.1800     1.9330    -0.3870 h1         1 FCK       0.023200
     32 H17         -3.7170     0.8580    -1.7030 h1         1 FCK       0.025700
     33 H17A        -3.5250     2.2360    -0.6340 h1         1 FCK       0.025700
     34 HN18        -2.7510    -0.4760     0.0820 hn         1 FCK       0.359800
     35 H22         -0.3100     0.4760     1.4270 hc         1 FCK       0.062200
     36 H22A        -0.3540    -0.9170     0.3470 hc         1 FCK       0.062200
     37 H23          1.2760     0.1870    -1.1790 h1         1 FCK       0.043200
     38 H23A         1.3100     1.6080    -0.1220 h1         1 FCK       0.043200
     39 HN13         9.0800     0.1340    -0.7910 hn         1 FCK       0.341500
     40 H30          4.0720    -0.9760     1.8720 h4         1 FCK       0.031800
     41 H171         5.0950     0.6910    -1.1960 hn         1 FCK       0.366500
     42 H15          6.4780    -1.3280     2.1720 ha         1 FCK       0.173000
@<TRIPOS>BOND
     1     1     2 ar  
     2     1     6 ar  
     3     1    26 1   
     4     2     3 ar  
     5     2    27 1   
     6     3     4 ar  
     7     3    11 1   
     8     4     5 ar  
     9     4    28 1   
    10     5     6 ar  
    11     5     9 1   
    12     6    29 1   
    13     7    12 1   
    14     7    13 1   
    15     7    30 1   
    16     7    31 1   
    17     8     9 1   
    18     9    10 1   
    19    11    12 1   
    20    11    32 1   
    21    11    33 1   
    22    12    34 1   
    23    13    14 1   
    24    13    35 1   
    25    13    36 1   
    26    14    15 1   
    27    14    37 1   
    28    14    38 1   
    29    15    16 1   
    30    16    17 2   
    31    17    18 1   
    32    17    40 1   
    33    18    19 1   
    34    18    20 2   
    35    19    24 1   
    36    19    41 1   
    37    20    21 1   
    38    20    42 1   
    39    21    22 2   
    40    21    23 1   
    41    23    24 1   
    42    23    39 1   
    43    24    25 2   
@<TRIPOS>SUBSTRUCTURE
     1 FCK         1 TEMP              0 ****  ****    0 ROOT
