@<TRIPOS>MOLECULE
FCM
   65    69     1     0     0
SMALL
No Charge or Current Charge


@<TRIPOS>ATOM
      1 C1          -3.3330     2.2470    -1.0000 ce         1 FCM      -0.410400
      2 C2          -2.1670     2.8120    -0.5510 cf         1 FCM       0.306100
      3 C3          -1.0940     2.0210     0.0020 cf         1 FCM      -0.357000
      4 C4          -1.3390     0.7670     0.3830 c2         1 FCM       0.181900
      5 C5          -2.7330     0.1700     0.3550 c5         1 FCM      -0.103500
      6 C6          -3.5290     0.7590    -0.8450 c          1 FCM       0.643300
      7 O7          -0.4270    -0.2020     0.7000 os         1 FCM      -0.188200
      8 C8          -0.9900    -1.4350     0.5530 ca         1 FCM       0.192100
      9 C9          -2.3330    -1.3050     0.2710 ca         1 FCM      -0.296300
     10 C10         -0.3410    -2.6800     0.6530 ca         1 FCM      -0.233600
     11 C11         -1.1380    -3.8350     0.4490 ca         1 FCM       0.239100
     12 C12         -2.5160    -3.7010     0.1370 ca         1 FCM      -0.275000
     13 C13         -3.1110    -2.4390     0.0420 ca         1 FCM       0.279100
     14 O14         -4.2720     0.0810    -1.5430 o          1 FCM      -0.571100
     15 C15         -4.4060     3.0620    -1.6770 c          1 FCM       0.612300
     16 C16         -5.8170     2.4880    -1.8440 c3         1 FCM      -0.184100
     17 O17         -4.2120     4.2010    -2.0790 o          1 FCM      -0.527100
     18 O18         -1.8940     4.1170    -0.6310 oh         1 FCM      -0.471100
     19 C19         -3.4920     0.4690     1.6750 c3         1 FCM      -0.072100
     20 O20         -4.4190    -2.3270    -0.2980 oh         1 FCM      -0.539100
     21 C21          1.1310    -2.7730     0.9690 c          1 FCM       0.641700
     22 O22          1.6460    -3.7220     1.5430 o          1 FCM      -0.586100
     23 N23          1.8760    -1.6750     0.6220 ns         1 FCM      -0.499900
     24 C24          3.2780    -1.4600     0.9580 c3         1 FCM       0.154300
     25 C25          3.7590    -0.1240     0.3720 ca         1 FCM      -0.116300
     26 C26          4.6660    -0.0980    -0.7270 ca         1 FCM      -0.025300
     27 C27          5.0580     1.1370    -1.2730 ca         1 FCM      -0.162000
     28 C28          4.5670     2.3390    -0.7590 ca         1 FCM       0.193000
     29 C29          3.6680     2.3390     0.3240 ca         1 FCM      -0.080000
     30 C30          3.2640     1.1080     0.8990 ca         1 FCM      -0.002000
     31 C31          3.1700     3.5610     0.8290 ca         1 FCM      -0.081000
     32 C32          2.2690     3.5700     1.9040 ca         1 FCM      -0.111000
     33 C33          1.8660     2.3620     2.4840 ca         1 FCM      -0.096000
     34 C34          2.3590     1.1430     1.9910 ca         1 FCM      -0.110000
     35 O35         -0.5450    -5.0810     0.5080 os         1 FCM      -0.328100
     36 C36         -1.2750    -6.3050     0.3100 c3         1 FCM       0.144900
     37 C37          5.2420    -1.3640    -1.3710 c3         1 FCM      -0.037100
     38 F38          4.9690     3.5000    -1.3250 f          1 FCM      -0.175000
     39 C39          4.2450    -2.0560    -2.3240 c3         1 FCM      -0.090100
     40 H2          -0.0710     2.4010     0.0050 ha         1 FCM       0.214000
     41 H4          -3.1400    -4.5690    -0.0470 ha         1 FCM       0.143000
     42 H5          -6.0970     1.8970    -0.9650 hc         1 FCM       0.061033
     43 H6          -6.5550     3.2670    -2.0640 hc         1 FCM       0.061033
     44 H7          -5.8060     1.7620    -2.6640 hc         1 FCM       0.061033
     45 H8          -1.0290     4.2550    -0.1970 ho         1 FCM       0.482000
     46 H9          -3.6480     1.5460     1.8150 hc         1 FCM       0.058367
     47 H10         -4.4760    -0.0150     1.6860 hc         1 FCM       0.058367
     48 H11         -2.9330     0.1020     2.5440 hc         1 FCM       0.058367
     49 H12         -4.5130    -1.4490    -0.7460 ho         1 FCM       0.518000
     50 H13          1.3770    -0.9190     0.1710 hn         1 FCM       0.324500
     51 H14          3.3910    -1.4500     2.0500 h1         1 FCM       0.059200
     52 H15          3.8570    -2.3130     0.5900 h1         1 FCM       0.059200
     53 H16          5.7450     1.1700    -2.1140 ha         1 FCM       0.133000
     54 H17          3.4750     4.5090     0.3920 ha         1 FCM       0.127000
     55 H18          1.8880     4.5140     2.2880 ha         1 FCM       0.117000
     56 H19          1.1690     2.3670     3.3200 ha         1 FCM       0.111000
     57 H20          2.0180     0.2350     2.4790 ha         1 FCM       0.125000
     58 H21         -0.6060    -7.1670     0.4130 h1         1 FCM       0.048700
     59 H22         -2.0760    -6.4070     1.0530 h1         1 FCM       0.048700
     60 H23         -1.7170    -6.3380    -0.6940 h1         1 FCM       0.048700
     61 H24          6.1420    -1.1160    -1.9470 hc         1 FCM       0.051700
     62 H25          5.5860    -2.0750    -0.6110 hc         1 FCM       0.051700
     63 H26          4.7070    -2.9360    -2.7850 hc         1 FCM       0.038367
     64 H27          3.3460    -2.3820    -1.7910 hc         1 FCM       0.038367
     65 H28          3.9410    -1.3700    -3.1240 hc         1 FCM       0.038367
@<TRIPOS>BOND
     1     1     2 2   
     2     1     6 1   
     3     1    15 1   
     4     2     3 1   
     5     2    18 1   
     6     3     4 2   
     7     3    40 1   
     8     4     5 1   
     9     4     7 1   
    10     5     6 1   
    11     5     9 1   
    12     5    19 1   
    13     6    14 2   
    14     7     8 1   
    15     8     9 ar  
    16     8    10 ar  
    17     9    13 ar  
    18    10    11 ar  
    19    10    21 1   
    20    11    12 ar  
    21    11    35 1   
    22    12    13 ar  
    23    12    41 1   
    24    13    20 1   
    25    15    16 1   
    26    15    17 2   
    27    16    42 1   
    28    16    43 1   
    29    16    44 1   
    30    18    45 1   
    31    19    46 1   
    32    19    47 1   
    33    19    48 1   
    34    20    49 1   
    35    21    22 2   
    36    21    23 1   
    37    23    24 1   
    38    23    50 1   
    39    24    25 1   
    40    24    51 1   
    41    24    52 1   
    42    25    26 ar  
    43    25    30 ar  
    44    26    27 ar  
    45    26    37 1   
    46    27    28 ar  
    47    27    53 1   
    48    28    29 ar  
    49    28    38 1   
    50    29    30 ar  
    51    29    31 ar  
    52    30    34 ar  
    53    31    32 ar  
    54    31    54 1   
    55    32    33 ar  
    56    32    55 1   
    57    33    34 ar  
    58    33    56 1   
    59    34    57 1   
    60    35    36 1   
    61    36    58 1   
    62    36    59 1   
    63    36    60 1   
    64    37    39 1   
    65    37    61 1   
    66    37    62 1   
    67    39    63 1   
    68    39    64 1   
    69    39    65 1   
@<TRIPOS>SUBSTRUCTURE
     1 FCM         1 TEMP              0 ****  ****    0 ROOT
