@<TRIPOS>MOLECULE
FCM
   65    69     1     0     0
SMALL
abcg2


@<TRIPOS>ATOM
      1 C1          -4.3790     2.3080     0.0090 ce         1 FCM      -0.410400
      2 C2          -3.4890     2.8850     0.9140 cf         1 FCM       0.306100
      3 C3          -2.3700     2.1840     1.4960 cf         1 FCM      -0.357000
      4 C4          -2.2790     0.8740     1.2570 c2         1 FCM       0.181900
      5 C5          -3.3560     0.0890     0.5950 c5         1 FCM      -0.103500
      6 C6          -4.2000     0.9220    -0.3390 c          1 FCM       0.643300
      7 O7          -1.2100     0.1050     1.5090 os         1 FCM      -0.188200
      8 C8          -1.3380    -1.0320     0.7420 ca         1 FCM       0.192100
      9 C9          -2.5440    -1.0560     0.0640 ca         1 FCM      -0.296300
     10 C10         -0.3710    -1.9980     0.6600 ca         1 FCM      -0.233600
     11 C11         -0.6640    -3.0810    -0.1880 ca         1 FCM       0.239100
     12 C12         -1.8580    -3.1400    -0.8990 ca         1 FCM      -0.275000
     13 C13         -2.8170    -2.1250    -0.7740 ca         1 FCM       0.279100
     14 O14         -4.7600     0.3650    -1.2800 o          1 FCM      -0.571100
     15 C15         -5.4500     3.1120    -0.6270 c          1 FCM       0.612300
     16 C16         -6.7220     2.4200    -1.0520 c3         1 FCM      -0.184100
     17 O17         -5.3420     4.3130    -0.7760 o          1 FCM      -0.527100
     18 O18         -3.6290     4.1500     1.2340 oh         1 FCM      -0.471100
     19 C19         -4.3420    -0.4220     1.6890 c3         1 FCM      -0.072100
     20 O20         -3.9500    -2.2290    -1.4700 oh         1 FCM      -0.539100
     21 C21          0.9090    -1.9230     1.4330 c          1 FCM       0.641700
     22 O22          1.0390    -2.4220     2.5390 o          1 FCM      -0.586100
     23 N23          1.8770    -1.2480     0.8040 ns         1 FCM      -0.499900
     24 C24          3.2010    -1.0540     1.3670 c3         1 FCM       0.154300
     25 C25          4.0530    -0.2760     0.4020 ca         1 FCM      -0.116300
     26 C26          5.0230    -0.8950    -0.3590 ca         1 FCM      -0.025300
     27 C27          5.7820    -0.1330    -1.2780 ca         1 FCM      -0.162000
     28 C28          5.5540     1.1970    -1.4170 ca         1 FCM       0.193000
     29 C29          4.5720     1.8840    -0.6770 ca         1 FCM      -0.080000
     30 C30          3.8090     1.1230     0.2490 ca         1 FCM      -0.002000
     31 C31          4.3360     3.2690    -0.8350 ca         1 FCM      -0.081000
     32 C32          3.3640     3.8890    -0.1000 ca         1 FCM      -0.111000
     33 C33          2.5960     3.1490     0.8180 ca         1 FCM      -0.096000
     34 C34          2.8110     1.8080     0.9870 ca         1 FCM      -0.110000
     35 O35          0.3020    -4.0050    -0.2630 os         1 FCM      -0.328100
     36 C36          0.1420    -5.0980    -1.1500 c3         1 FCM       0.144900
     37 C37          5.3040    -2.3760    -0.3060 c3         1 FCM      -0.037100
     38 F38          6.2850     1.9040    -2.2900 f          1 FCM      -0.175000
     39 C39          4.3290    -3.1830    -1.1620 c3         1 FCM      -0.090100
     40 H2          -1.5980     2.7380     2.0150 ha         1 FCM       0.214000
     41 H4          -2.0700    -3.9600    -1.5720 ha         1 FCM       0.143000
     42 H5          -6.9760     1.5670    -0.4270 hc         1 FCM       0.061033
     43 H6          -7.5370     3.1420    -1.0200 hc         1 FCM       0.061033
     44 H7          -6.6350     2.0610    -2.0780 hc         1 FCM       0.061033
     45 H8          -2.9820     4.4170     1.9010 ho         1 FCM       0.482000
     46 H9          -4.8520     0.4060     2.1790 hc         1 FCM       0.058367
     47 H10         -5.0840    -1.0710     1.2260 hc         1 FCM       0.058367
     48 H11         -3.8020    -0.9990     2.4380 hc         1 FCM       0.058367
     49 H12         -4.4090    -1.3600    -1.4680 ho         1 FCM       0.518000
     50 H13          1.6940    -0.8970    -0.1230 hn         1 FCM       0.324500
     51 H14          3.1220    -0.5300     2.3230 h1         1 FCM       0.059200
     52 H15          3.6490    -2.0210     1.5930 h1         1 FCM       0.059200
     53 H16          6.5500    -0.6120    -1.8720 ha         1 FCM       0.133000
     54 H17          4.9230     3.8400    -1.5410 ha         1 FCM       0.127000
     55 H18          3.1830     4.9480    -0.2240 ha         1 FCM       0.117000
     56 H19          1.8260     3.6460     1.3940 ha         1 FCM       0.111000
     57 H20          2.1960     1.2700     1.6950 ha         1 FCM       0.125000
     58 H21          1.0490    -5.6910    -1.0690 h1         1 FCM       0.048700
     59 H22         -0.7140    -5.7190    -0.8780 h1         1 FCM       0.048700
     60 H23          0.0280    -4.7630    -2.1830 h1         1 FCM       0.048700
     61 H24          6.3200    -2.5510    -0.6630 hc         1 FCM       0.051700
     62 H25          5.2830    -2.7420     0.7210 hc         1 FCM       0.051700
     63 H26          4.5790    -4.2440    -1.1310 hc         1 FCM       0.038367
     64 H27          3.3000    -3.0750    -0.8170 hc         1 FCM       0.038367
     65 H28          4.3650    -2.8630    -2.2040 hc         1 FCM       0.038367
@<TRIPOS>BOND
     1     1     2 2   
     2     1     6 1   
     3     1    15 1   
     4     2     3 1   
     5     2    18 1   
     6     3     4 2   
     7     3    40 1   
     8     4     5 1   
     9     4     7 1   
    10     5     6 1   
    11     5     9 1   
    12     5    19 1   
    13     6    14 2   
    14     7     8 1   
    15     8     9 ar  
    16     8    10 ar  
    17     9    13 ar  
    18    10    11 ar  
    19    10    21 1   
    20    11    12 ar  
    21    11    35 1   
    22    12    13 ar  
    23    12    41 1   
    24    13    20 1   
    25    15    16 1   
    26    15    17 2   
    27    16    42 1   
    28    16    43 1   
    29    16    44 1   
    30    18    45 1   
    31    19    46 1   
    32    19    47 1   
    33    19    48 1   
    34    20    49 1   
    35    21    22 2   
    36    21    23 1   
    37    23    24 1   
    38    23    50 1   
    39    24    25 1   
    40    24    51 1   
    41    24    52 1   
    42    25    26 ar  
    43    25    30 ar  
    44    26    27 ar  
    45    26    37 1   
    46    27    28 ar  
    47    27    53 1   
    48    28    29 ar  
    49    28    38 1   
    50    29    30 ar  
    51    29    31 ar  
    52    30    34 ar  
    53    31    32 ar  
    54    31    54 1   
    55    32    33 ar  
    56    32    55 1   
    57    33    34 ar  
    58    33    56 1   
    59    34    57 1   
    60    35    36 1   
    61    36    58 1   
    62    36    59 1   
    63    36    60 1   
    64    37    39 1   
    65    37    61 1   
    66    37    62 1   
    67    39    63 1   
    68    39    64 1   
    69    39    65 1   
@<TRIPOS>SUBSTRUCTURE
     1 FCM         1 TEMP              0 ****  ****    0 ROOT
