@<TRIPOS>MOLECULE
FCN
   13    13     1     0     0
SMALL
No Charge or Current Charge


@<TRIPOS>ATOM
      1 C1          -0.7220     0.6410     0.6030 cx         1 FCN      -0.122700
      2 C2          -0.0200     0.5360     1.9340 cx         1 FCN       0.069300
      3 C3           1.2750    -0.2430     2.1330 c3         1 FCN      -0.074100
      4 O           -1.2060    -0.2460     1.6590 op         1 FCN      -0.489000
      5 P            0.0200     0.0200    -1.0190 p5         1 FCN       1.311500
      6 O1P          0.2180    -1.4580    -0.9160 o          1 FCN      -0.931167
      7 O2P         -0.9690     0.3670    -2.0840 o          1 FCN      -0.931167
      8 O3P          1.3100     0.7510    -1.2100 o          1 FCN      -0.931167
      9 H1          -1.3430     1.5200     0.4400 h1         1 FCN       0.018700
     10 H2          -0.1620     1.3560     2.6380 h1         1 FCN      -0.009300
     11 H31          1.5020    -0.3390     3.2010 hc         1 FCN       0.029367
     12 H32          1.2150    -1.2530     1.7130 hc         1 FCN       0.029367
     13 H33          2.1170     0.2760     1.6610 hc         1 FCN       0.029367
@<TRIPOS>BOND
     1     1     2 1   
     2     1     4 1   
     3     1     5 1   
     4     1     9 1   
     5     2     3 1   
     6     2     4 1   
     7     2    10 1   
     8     3    11 1   
     9     3    12 1   
    10     3    13 1   
    11     5     6 1   
    12     5     7 1   
    13     5     8 1   
@<TRIPOS>SUBSTRUCTURE
     1 FCN         1 TEMP              0 ****  ****    0 ROOT
