@<TRIPOS>MOLECULE
FCN
   13    13     1     0     0
SMALL
abcg2


@<TRIPOS>ATOM
      1 C1          -0.5470     0.7390     0.5570 cx         1 FCN      -0.122700
      2 C2           0.0430     0.5640     1.8860 cx         1 FCN       0.069300
      3 C3           1.2210    -0.3180     2.1810 c3         1 FCN      -0.074100
      4 O           -1.1880    -0.0610     1.5680 op         1 FCN      -0.489000
      5 P           -0.0150    -0.0240    -1.0490 p5         1 FCN       1.311500
      6 O1P          0.5800    -1.4000    -0.7410 o          1 FCN      -0.931167
      7 O2P         -1.3210    -0.0850    -1.8510 o          1 FCN      -0.931167
      8 O3P          0.9910     1.0030    -1.5780 o          1 FCN      -0.931167
      9 H1          -1.0510     1.7020     0.4160 h1         1 FCN       0.018700
     10 H2          -0.0620     1.4000     2.5820 h1         1 FCN      -0.009300
     11 H31          1.1240    -0.7820     3.1650 hc         1 FCN       0.029367
     12 H32          1.3230    -1.0890     1.4220 hc         1 FCN       0.029367
     13 H33          2.1350     0.2800     2.1940 hc         1 FCN       0.029367
@<TRIPOS>BOND
     1     1     2 1   
     2     1     4 1   
     3     1     5 1   
     4     1     9 1   
     5     2     3 1   
     6     2     4 1   
     7     2    10 1   
     8     3    11 1   
     9     3    12 1   
    10     3    13 1   
    11     5     6 1   
    12     5     7 1   
    13     5     8 1   
@<TRIPOS>SUBSTRUCTURE
     1 FCN         1 TEMP              0 ****  ****    0 ROOT
