@<TRIPOS>MOLECULE
FCP
   53    55     1     0     0
SMALL
No Charge or Current Charge


@<TRIPOS>ATOM
      1 C22          0.9170    -0.6910     1.2690 ca         1 FCP      -0.094500
      2 C1          -2.9760    -0.4810    -2.8420 ca         1 FCP       0.193900
      3 C5          -0.8530    -0.2970    -2.0120 ca         1 FCP       0.410900
      4 C4          -0.3540    -0.2350    -3.3130 ca         1 FCP      -0.357000
      5 C3          -1.2820    -0.2770    -4.3550 ca         1 FCP       0.415900
      6 C17         -0.1060    -0.1810     0.4480 ca         1 FCP       0.263000
      7 C18         -1.2150     0.4460     1.0540 ca         1 FCP      -0.094500
      8 C19         -1.3060     0.5370     2.4550 ca         1 FCP      -0.154000
      9 C20         -0.2910     0.0130     3.2710 ca         1 FCP       0.131100
     10 N2          -2.5950    -0.4180    -4.1330 nb         1 FCP      -0.283000
     11 N6          -2.1660    -0.4290    -1.7650 nb         1 FCP      -0.274000
     12 N7          -0.9060    -0.2510    -5.6860 nu         1 FCP      -0.951900
     13 N16          0.0340    -0.2820    -0.9450 nu         1 FCP      -0.938900
     14 C21          0.8290    -0.6020     2.6720 ca         1 FCP      -0.154000
     15 O23         -0.4350     0.1310     4.6370 os         1 FCP      -0.329100
     16 C24          0.5520    -0.3740     5.5610 c3         1 FCP       0.161600
     17 C11          2.6630     0.8250    -7.7740 ca         1 FCP      -0.057000
     18 C10          1.8830    -0.2620    -8.1980 ca         1 FCP      -0.167000
     19 C9           0.7090    -0.6040    -7.5050 ca         1 FCP       0.194500
     20 C8           0.2900     0.1230    -6.3600 ca         1 FCP       0.189000
     21 C12          2.2560     1.5760    -6.6600 ca         1 FCP      -0.167000
     22 C13          1.0830     1.2370    -5.9620 ca         1 FCP       0.194500
     23 F15          0.7060     2.0300    -4.9300 f          1 FCP      -0.159000
     24 C25          0.0790    -0.0860     7.0100 c3         1 FCP       0.172300
     25 C26          1.0010    -0.7270     8.0800 c3         1 FCP       0.120800
     26 N27          0.8430    -0.1230     9.4380 n3         1 FCP      -0.737600
     27 C28         -0.4820    -0.3930    10.0530 c3         1 FCP       0.151100
     28 C29          1.9500    -0.5000    10.3470 c3         1 FCP       0.151100
     29 O30          0.0540     1.3200     7.2980 oh         1 FCP      -0.651000
     30 H22          1.7840    -1.1680     0.8200 ha         1 FCP       0.124000
     31 HL          -4.0420    -0.5910    -2.6490 h5         1 FCP       0.045100
     32 HB           0.7100    -0.1650    -3.5050 ha         1 FCP       0.130000
     33 HE          -2.0020     0.8820     0.4480 ha         1 FCP       0.124000
     34 HF          -2.1660     1.0220     2.9110 ha         1 FCP       0.122500
     35 HD          -1.6040    -0.6930    -6.2880 hn         1 FCP       0.525000
     36 HC           0.9950    -0.4430    -1.2450 hn         1 FCP       0.494000
     37 HA           1.6360    -1.0140     3.2710 ha         1 FCP       0.122500
     38 HA1          1.5250     0.1050     5.3910 h1         1 FCP       0.037200
     39 HB2          0.6710    -1.4570     5.4340 h1         1 FCP       0.037200
     40 HH           3.5710     1.0920    -8.3120 ha         1 FCP       0.125000
     41 HI           2.1860    -0.8430    -9.0660 ha         1 FCP       0.141000
     42 HJ           2.8440     2.4320    -6.3380 ha         1 FCP       0.141000
     43 HG          -0.9280    -0.5070     7.1350 h1         1 FCP       0.046700
     44 HB1          2.0390    -0.5940     7.7440 h1         1 FCP       0.043200
     45 HC2          0.8150    -1.8090     8.1130 h1         1 FCP       0.043200
     46 HC1         -0.5640     0.1040    11.0290 h1         1 FCP       0.035533
     47 HD2         -1.3000    -0.0200     9.4220 h1         1 FCP       0.035533
     48 HE3         -0.6300    -1.4710    10.2050 h1         1 FCP       0.035533
     49 HD1          2.9210    -0.2180     9.9160 h1         1 FCP       0.035533
     50 HE2          1.8520     0.0120    11.3130 h1         1 FCP       0.035533
     51 HF3          1.9560    -1.5830    10.5300 h1         1 FCP       0.035533
     52 HK           0.3320     1.3310     8.2490 ho         1 FCP       0.468000
     53 F14         -0.0200    -1.6580    -7.9470 f          1 FCP      -0.159000
@<TRIPOS>BOND
     1     1     6 ar  
     2     1    14 ar  
     3     1    30 1   
     4     2    10 ar  
     5     2    11 ar  
     6     2    31 1   
     7     3     4 ar  
     8     3    11 ar  
     9     3    13 1   
    10     4     5 ar  
    11     4    32 1   
    12     5    10 ar  
    13     5    12 1   
    14     6     7 ar  
    15     6    13 1   
    16     7     8 ar  
    17     7    33 1   
    18     8     9 ar  
    19     8    34 1   
    20     9    14 ar  
    21     9    15 1   
    22    12    20 1   
    23    12    35 1   
    24    13    36 1   
    25    14    37 1   
    26    15    16 1   
    27    16    24 1   
    28    16    38 1   
    29    16    39 1   
    30    17    18 ar  
    31    17    21 ar  
    32    17    40 1   
    33    18    19 ar  
    34    18    41 1   
    35    19    20 ar  
    36    19    53 1   
    37    20    22 ar  
    38    21    22 ar  
    39    21    42 1   
    40    22    23 1   
    41    24    25 1   
    42    24    29 1   
    43    24    43 1   
    44    25    26 1   
    45    25    44 1   
    46    25    45 1   
    47    26    27 1   
    48    26    28 1   
    49    27    46 1   
    50    27    47 1   
    51    27    48 1   
    52    28    49 1   
    53    28    50 1   
    54    28    51 1   
    55    29    52 1   
@<TRIPOS>SUBSTRUCTURE
     1 FCP         1 TEMP              0 ****  ****    0 ROOT
