@<TRIPOS>MOLECULE
FCP
   53    55     1     0     0
SMALL
bcc


@<TRIPOS>ATOM
      1 C22          0.9510    -0.3860     1.2290 ca         1 FCP      -0.112500
      2 C1          -2.8940    -0.3490    -2.6220 ca         1 FCP       0.719900
      3 C5          -0.7700    -0.0120    -1.9490 ca         1 FCP       0.739200
      4 C4          -0.3510    -0.0110    -3.2820 ca         1 FCP      -0.505600
      5 C3          -1.3360    -0.1910    -4.2440 ca         1 FCP       0.744200
      6 C17         -0.0470     0.1530     0.4240 ca         1 FCP       0.124600
      7 C18         -1.1620     0.7230     1.0440 ca         1 FCP      -0.112500
      8 C19         -1.2690     0.7270     2.4210 ca         1 FCP      -0.172000
      9 C20         -0.2660     0.1830     3.2240 ca         1 FCP       0.131100
     10 N2          -2.6260    -0.3650    -3.9110 nb         1 FCP      -0.809000
     11 N6          -2.0550    -0.1810    -1.6170 nb         1 FCP      -0.800000
     12 N7          -1.0770    -0.2120    -5.5770 nu         1 FCP      -0.758300
     13 N16          0.1490     0.1530    -0.9640 nu         1 FCP      -0.745300
     14 C21          0.8560    -0.3680     2.6150 ca         1 FCP      -0.172000
     15 O23         -0.4660     0.2430     4.5570 os         1 FCP      -0.305900
     16 C24          0.5200    -0.2890     5.4190 c3         1 FCP       0.138400
     17 C11          2.6750     0.4710    -7.3130 ca         1 FCP      -0.075000
     18 C10          2.1240    -0.8010    -7.3560 ca         1 FCP      -0.185000
     19 C9           0.8940    -1.0050    -6.7650 ca         1 FCP       0.159400
     20 C8           0.1790     0.0150    -6.1460 ca         1 FCP       0.050600
     21 C12          2.0060     1.5220    -6.7010 ca         1 FCP      -0.185000
     22 C13          0.7700     1.2750    -6.1400 ca         1 FCP       0.159400
     23 F15          0.1020     2.2720    -5.5550 f          1 FCP      -0.123900
     24 C25          0.0640    -0.0770     6.8440 c3         1 FCP       0.149100
     25 C26          1.0180    -0.7830     7.8100 c3         1 FCP       0.120800
     26 N27          0.7510    -0.3500     9.1700 n3         1 FCP      -0.737600
     27 C28         -0.4290    -0.9770     9.7340 c3         1 FCP       0.151100
     28 C29          1.8970    -0.5140    10.0400 c3         1 FCP       0.151100
     29 O30          0.0300     1.2990     7.1340 oh         1 FCP      -0.588800
     30 H22          1.8260    -0.8310     0.7720 ha         1 FCP       0.142000
     31 HL          -3.9360    -0.4920    -2.3510 h5         1 FCP       0.045100
     32 HB           0.6930     0.1090    -3.5360 ha         1 FCP       0.148000
     33 HE          -1.9500     1.1660     0.4550 ha         1 FCP       0.142000
     34 HF          -2.1400     1.1700     2.8870 ha         1 FCP       0.140500
     35 HD          -1.8540    -0.4310    -6.1820 hn         1 FCP       0.469800
     36 HC           1.1110     0.1490    -1.2650 hn         1 FCP       0.438800
     37 HA           1.6640    -0.7990     3.1890 ha         1 FCP       0.140500
     38 HA1          1.4870     0.2040     5.2580 h1         1 FCP       0.037200
     39 HB2          0.6570    -1.3620     5.2370 h1         1 FCP       0.037200
     40 HH           3.6410     0.6490    -7.7650 ha         1 FCP       0.143000
     41 HI           2.6430    -1.6220    -7.8320 ha         1 FCP       0.159000
     42 HJ           2.4290     2.5170    -6.6710 ha         1 FCP       0.159000
     43 HG          -0.9400    -0.5190     6.9440 h1         1 FCP       0.046700
     44 HB1          2.0450    -0.4990     7.5620 h1         1 FCP       0.043200
     45 HC2          0.9450    -1.8740     7.6860 h1         1 FCP       0.043200
     46 HC1         -0.6330    -0.5570    10.7190 h1         1 FCP       0.035533
     47 HD2         -1.3040    -0.7890     9.1120 h1         1 FCP       0.035533
     48 HE3         -0.3200    -2.0660     9.8440 h1         1 FCP       0.035533
     49 HD1          2.7570     0.0180     9.6330 h1         1 FCP       0.035533
     50 HE2          1.6770    -0.0930    11.0220 h1         1 FCP       0.035533
     51 HF3          2.1860    -1.5650    10.1840 h1         1 FCP       0.035533
     52 HK           0.1880     1.3490     8.0910 ho         1 FCP       0.429000
     53 F14          0.3510    -2.2240    -6.7830 f          1 FCP      -0.123900
@<TRIPOS>BOND
     1     1     6 ar  
     2     1    14 ar  
     3     1    30 1   
     4     2    10 ar  
     5     2    11 ar  
     6     2    31 1   
     7     3     4 ar  
     8     3    11 ar  
     9     3    13 1   
    10     4     5 ar  
    11     4    32 1   
    12     5    10 ar  
    13     5    12 1   
    14     6     7 ar  
    15     6    13 1   
    16     7     8 ar  
    17     7    33 1   
    18     8     9 ar  
    19     8    34 1   
    20     9    14 ar  
    21     9    15 1   
    22    12    20 1   
    23    12    35 1   
    24    13    36 1   
    25    14    37 1   
    26    15    16 1   
    27    16    24 1   
    28    16    38 1   
    29    16    39 1   
    30    17    18 ar  
    31    17    21 ar  
    32    17    40 1   
    33    18    19 ar  
    34    18    41 1   
    35    19    20 ar  
    36    19    53 1   
    37    20    22 ar  
    38    21    22 ar  
    39    21    42 1   
    40    22    23 1   
    41    24    25 1   
    42    24    29 1   
    43    24    43 1   
    44    25    26 1   
    45    25    44 1   
    46    25    45 1   
    47    26    27 1   
    48    26    28 1   
    49    27    46 1   
    50    27    47 1   
    51    27    48 1   
    52    28    49 1   
    53    28    50 1   
    54    28    51 1   
    55    29    52 1   
@<TRIPOS>SUBSTRUCTURE
     1 FCP         1 TEMP              0 ****  ****    0 ROOT
