@<TRIPOS>MOLECULE
FCQ
   55    58     1     0     0
SMALL
abcg2


@<TRIPOS>ATOM
      1 C4          -4.2460     2.4340    -0.0260 cc         1 FCQ      -0.088300
      2 C14          3.4270     0.3820     0.4850 ca         1 FCQ      -0.083500
      3 C5          -2.4110     1.3870    -0.6850 ca         1 FCQ      -0.206000
      4 C6          -3.6520     1.1760    -0.0580 ca         1 FCQ      -0.056000
      5 C11          0.5290    -0.7330    -1.7050 c3         1 FCQ       0.268100
      6 C7          -3.2110    -0.9880     0.1690 ca         1 FCQ       0.280300
      7 C8          -2.3330    -3.6540     0.3440 c3         1 FCQ       0.049600
      8 C9          -2.6850    -5.0730     0.7700 c3         1 FCQ       0.155800
      9 C10         -1.5690     0.2460    -0.8630 ca         1 FCQ       0.448900
     10 C12          1.9220    -0.4360    -1.2160 ca         1 FCQ      -0.101300
     11 C13          2.1420     0.1420     0.0330 ca         1 FCQ      -0.106000
     12 N1          -3.3390     3.2430    -0.6110 na         1 FCQ       0.015500
     13 N2          -2.2260     2.6580    -1.0210 nc         1 FCQ      -0.260400
     14 C3          -5.3800     3.8080     1.7260 c3         1 FCQ      -0.089100
     15 N3          -4.0750    -0.0360     0.3860 nb         1 FCQ      -0.157000
     16 C1          -6.4120     3.5680    -0.5630 c3         1 FCQ      -0.089100
     17 C2          -5.5600     2.8930     0.5130 c3         1 FCQ      -0.000500
     18 S1          -3.7360    -2.5730     0.7360 ss         1 FCQ      -0.346300
     19 N4          -1.5670    -5.9520     0.4660 n8         1 FCQ      -0.996200
     20 N5          -2.0040    -0.9180    -0.4230 nb         1 FCQ      -0.316000
     21 N6          -0.3800     0.3600    -1.4570 nu         1 FCQ      -0.916100
     22 C15          4.5370     0.0600    -0.3000 cp         1 FCQ      -0.142500
     23 C16          4.3130    -0.5220    -1.5460 ca         1 FCQ      -0.083500
     24 C17          3.0240    -0.7640    -1.9960 ca         1 FCQ      -0.106000
     25 C18          5.9040     0.3360     0.1940 cp         1 FCQ       0.407500
     26 N7           6.0520     0.4540     1.5140 nb         1 FCQ      -0.673000
     27 C19          7.2560     0.7040     2.0050 ca         1 FCQ       0.343900
     28 C20          8.3890     0.8510     1.2180 ca         1 FCQ      -0.165000
     29 C21          8.2400     0.7400    -0.1560 ca         1 FCQ      -0.073000
     30 C22          6.9840     0.4840    -0.6770 ca         1 FCQ      -0.153000
     31 H2           0.5530    -0.9650    -2.7730 h1         1 FCQ       0.071200
     32 H3           0.1330    -1.6150    -1.2000 h1         1 FCQ       0.071200
     33 H4          -1.4480    -3.3010     0.8750 h1         1 FCQ       0.078700
     34 H5          -2.1270    -3.6200    -0.7250 h1         1 FCQ       0.078700
     35 H6          -2.9760    -5.0770     1.8290 h1         1 FCQ       0.038200
     36 H7          -3.5550    -5.4150     0.2040 h1         1 FCQ       0.038200
     37 H8           1.3010     0.4140     0.6600 ha         1 FCQ       0.118000
     38 H9          -3.4370     4.2380    -0.7550 hn         1 FCQ       0.374000
     39 H10         -4.8690     4.7340     1.4520 hc         1 FCQ       0.038200
     40 H11         -6.3510     4.0790     2.1420 hc         1 FCQ       0.038200
     41 H12         -4.8000     3.3230     2.5110 hc         1 FCQ       0.038200
     42 H13         -7.3990     3.8060    -0.1660 hc         1 FCQ       0.038200
     43 H14         -5.9620     4.5050    -0.8990 hc         1 FCQ       0.038200
     44 H15         -6.5430     2.9260    -1.4340 hc         1 FCQ       0.038200
     45 H16         -6.0790     1.9880     0.8420 hc         1 FCQ       0.091700
     46 H17         -0.8150    -5.7800     1.1210 hn         1 FCQ       0.394500
     47 H18         -1.8470    -6.9130     0.6150 hn         1 FCQ       0.394500
     48 H20         -0.1210     1.2700    -1.8060 hn         1 FCQ       0.510000
     49 H21          5.1450    -0.8050    -2.1790 ha         1 FCQ       0.124000
     50 H22          2.8780    -1.2170    -2.9700 ha         1 FCQ       0.118000
     51 H23          7.3270     0.7890     3.0840 h4         1 FCQ       0.019100
     52 H24          9.3500     1.0530     1.6710 ha         1 FCQ       0.125000
     53 H25          9.0890     0.8600    -0.8170 ha         1 FCQ       0.119000
     54 H26          6.8470     0.4180    -1.7480 ha         1 FCQ       0.124000
     55 H1           3.5760     0.8330     1.4570 ha         1 FCQ       0.124000
@<TRIPOS>BOND
     1     1     4 2   
     2     1    12 1   
     3     1    17 1   
     4     2    11 ar  
     5     2    22 ar  
     6     2    55 1   
     7     3     4 ar  
     8     3     9 ar  
     9     3    13 2   
    10     4    15 ar  
    11     5    10 1   
    12     5    21 1   
    13     5    31 1   
    14     5    32 1   
    15     6    15 ar  
    16     6    18 1   
    17     6    20 ar  
    18     7     8 1   
    19     7    18 1   
    20     7    33 1   
    21     7    34 1   
    22     8    19 1   
    23     8    35 1   
    24     8    36 1   
    25     9    20 ar  
    26     9    21 1   
    27    10    11 ar  
    28    10    24 ar  
    29    11    37 1   
    30    12    13 1   
    31    12    38 1   
    32    14    17 1   
    33    14    39 1   
    34    14    40 1   
    35    14    41 1   
    36    16    17 1   
    37    16    42 1   
    38    16    43 1   
    39    16    44 1   
    40    17    45 1   
    41    19    46 1   
    42    19    47 1   
    43    21    48 1   
    44    22    23 ar  
    45    22    25 1   
    46    23    24 ar  
    47    23    49 1   
    48    24    50 1   
    49    25    26 ar  
    50    25    30 ar  
    51    26    27 ar  
    52    27    28 ar  
    53    27    51 1   
    54    28    29 ar  
    55    28    52 1   
    56    29    30 ar  
    57    29    53 1   
    58    30    54 1   
@<TRIPOS>SUBSTRUCTURE
     1 FCQ         1 TEMP              0 ****  ****    0 ROOT
