@<TRIPOS>MOLECULE
FCQ
   55    58     1     0     0
SMALL
No Charge or Current Charge


@<TRIPOS>ATOM
      1 C4          -4.1090     2.4890    -0.4300 cc         1 FCQ      -0.088300
      2 C14          4.1960     0.1220     1.1550 ca         1 FCQ      -0.083500
      3 C5          -2.2580     1.2530    -0.2650 ca         1 FCQ      -0.206000
      4 C6          -3.6250     1.1630    -0.2710 ca         1 FCQ      -0.056000
      5 C11          0.7390    -1.1090     0.0350 c3         1 FCQ       0.268100
      6 C7          -3.5390    -1.0960    -0.0190 ca         1 FCQ       0.280300
      7 C8          -3.0700    -3.9180     0.3190 c3         1 FCQ       0.049600
      8 C9          -3.6700    -5.3330     0.4700 c3         1 FCQ       0.155800
      9 C10         -1.5390     0.0530    -0.1230 ca         1 FCQ       0.448900
     10 C12          2.1890    -0.6480    -0.0010 ca         1 FCQ      -0.101300
     11 C13          2.8570    -0.3030     1.1880 ca         1 FCQ      -0.106000
     12 N1          -2.9760     3.3000    -0.5000 na         1 FCQ       0.015500
     13 N2          -1.7830     2.5640    -0.4050 nc         1 FCQ      -0.260400
     14 C3          -6.1640     2.8770     0.9810 c3         1 FCQ      -0.089100
     15 N3          -4.3080     0.0130    -0.1530 nb         1 FCQ      -0.157000
     16 C1          -5.7180     4.3810    -1.0300 c3         1 FCQ      -0.089100
     17 C2          -5.5470     2.9640    -0.4320 c3         1 FCQ      -0.000500
     18 S1          -4.4130    -2.6510     0.1440 ss         1 FCQ      -0.346300
     19 N4          -2.6260    -6.3750     0.6090 n8         1 FCQ      -0.996200
     20 N5          -2.1810    -1.1270     0.0020 nb         1 FCQ      -0.316000
     21 N6          -0.1540     0.0490    -0.1050 nu         1 FCQ      -0.916100
     22 C15          4.9130     0.2230    -0.0700 cp         1 FCQ      -0.142500
     23 C16          4.2180    -0.1330    -1.2580 ca         1 FCQ      -0.083500
     24 C17          2.8790    -0.5590    -1.2230 ca         1 FCQ      -0.106000
     25 C18          6.3480     0.6830    -0.1040 cp         1 FCQ       0.407500
     26 N7           7.0620     0.5400     1.0400 nb         1 FCQ      -0.673000
     27 C19          8.3560     0.9330     1.0630 ca         1 FCQ       0.343900
     28 C20          9.0010     1.4950    -0.0500 ca         1 FCQ      -0.165000
     29 C21          8.2810     1.6630    -1.2410 ca         1 FCQ      -0.073000
     30 C22          6.9380     1.2520    -1.2630 ca         1 FCQ      -0.153000
     31 H2           0.5630    -1.8280    -0.7780 h1         1 FCQ       0.071200
     32 H3           0.5430    -1.6300     0.9830 h1         1 FCQ       0.071200
     33 H4          -2.4630    -3.6770     1.2010 h1         1 FCQ       0.078700
     34 H5          -2.4260    -3.8850    -0.5690 h1         1 FCQ       0.078700
     35 H6          -4.3210    -5.3630     1.3540 h1         1 FCQ       0.038200
     36 H7          -4.2790    -5.5630    -0.4150 h1         1 FCQ       0.038200
     37 H8           2.3370    -0.3630     2.1420 ha         1 FCQ       0.118000
     38 H9          -2.9580     4.3100    -0.6000 hn         1 FCQ       0.374000
     39 H10         -5.6320     3.5340     1.6780 hc         1 FCQ       0.038200
     40 H11         -7.2190     3.1740     0.9630 hc         1 FCQ       0.038200
     41 H12         -6.1080     1.8520     1.3660 hc         1 FCQ       0.038200
     42 H13         -6.7810     4.6450    -1.0940 hc         1 FCQ       0.038200
     43 H14         -5.2180     5.1350    -0.4100 hc         1 FCQ       0.038200
     44 H15         -5.2990     4.4270    -2.0420 hc         1 FCQ       0.038200
     45 H16         -6.1170     2.2800    -1.0740 hc         1 FCQ       0.091700
     46 H17         -2.1260    -6.2360     1.4960 hn         1 FCQ       0.394500
     47 H18         -3.0810    -7.2890     0.7330 hn         1 FCQ       0.394500
     48 H20          0.2770     0.9670    -0.2020 hn         1 FCQ       0.510000
     49 H21          4.7200    -0.0960    -2.2210 ha         1 FCQ       0.124000
     50 H22          2.3770    -0.8240    -2.1510 ha         1 FCQ       0.118000
     51 H23          8.8890     0.7940     2.0030 h4         1 FCQ       0.019100
     52 H24         10.0430     1.7960     0.0200 ha         1 FCQ       0.125000
     53 H25          8.7470     2.1030    -2.1210 ha         1 FCQ       0.119000
     54 H26          6.3570     1.3900    -2.1680 ha         1 FCQ       0.124000
     55 H1           4.6790     0.3860     2.0930 ha         1 FCQ       0.124000
@<TRIPOS>BOND
     1     1     4 2   
     2     1    12 1   
     3     1    17 1   
     4     2    11 ar  
     5     2    22 ar  
     6     2    55 1   
     7     3     4 ar  
     8     3     9 ar  
     9     3    13 2   
    10     4    15 ar  
    11     5    10 1   
    12     5    21 1   
    13     5    31 1   
    14     5    32 1   
    15     6    15 ar  
    16     6    18 1   
    17     6    20 ar  
    18     7     8 1   
    19     7    18 1   
    20     7    33 1   
    21     7    34 1   
    22     8    19 1   
    23     8    35 1   
    24     8    36 1   
    25     9    20 ar  
    26     9    21 1   
    27    10    11 ar  
    28    10    24 ar  
    29    11    37 1   
    30    12    13 1   
    31    12    38 1   
    32    14    17 1   
    33    14    39 1   
    34    14    40 1   
    35    14    41 1   
    36    16    17 1   
    37    16    42 1   
    38    16    43 1   
    39    16    44 1   
    40    17    45 1   
    41    19    46 1   
    42    19    47 1   
    43    21    48 1   
    44    22    23 ar  
    45    22    25 1   
    46    23    24 ar  
    47    23    49 1   
    48    24    50 1   
    49    25    26 ar  
    50    25    30 ar  
    51    26    27 ar  
    52    27    28 ar  
    53    27    51 1   
    54    28    29 ar  
    55    28    52 1   
    56    29    30 ar  
    57    29    53 1   
    58    30    54 1   
@<TRIPOS>SUBSTRUCTURE
     1 FCQ         1 TEMP              0 ****  ****    0 ROOT
