@<TRIPOS>MOLECULE
FCR
   16    16     1     0     0
SMALL
bcc


@<TRIPOS>ATOM
      1 C1          -0.0070    -0.0090    -0.3270 ca         1 FCR      -0.241300
      2 C2           1.2240    -0.0380     0.3280 ca         1 FCR      -0.035500
      3 C3           1.2900     0.0190     1.7050 ca         1 FCR      -0.205000
      4 C4           0.1160     0.1060     2.4560 ca         1 FCR       0.172100
      5 C5          -1.1150     0.1350     1.8060 ca         1 FCR      -0.205000
      6 C6          -1.1720     0.0780     0.4220 ca         1 FCR      -0.035500
      7 C7          -0.0340    -0.0630    -1.8160 c3         1 FCR       0.726200
      8 O4           0.2330     0.1590     3.7910 oh         1 FCR      -0.486100
      9 F1          -1.2750    -0.0830    -2.3110 f          1 FCR      -0.236967
     10 F2           0.5880     0.9930    -2.3690 f          1 FCR      -0.236967
     11 F3           0.5940    -1.1510    -2.2920 f          1 FCR      -0.236967
     12 H2           2.1480    -0.1060    -0.2330 ha         1 FCR       0.148000
     13 H3           2.2490    -0.0030     2.2060 ha         1 FCR       0.146500
     14 H5          -2.0330     0.2030     2.3760 ha         1 FCR       0.146500
     15 H6          -2.1430     0.1030    -0.0540 ha         1 FCR       0.148000
     16 H4          -0.6340     0.2330     4.2070 ho         1 FCR       0.432000
@<TRIPOS>BOND
     1     1     2 ar  
     2     1     6 ar  
     3     1     7 1   
     4     2     3 ar  
     5     2    12 1   
     6     3     4 ar  
     7     3    13 1   
     8     4     5 ar  
     9     4     8 1   
    10     5     6 ar  
    11     5    14 1   
    12     6    15 1   
    13     7     9 1   
    14     7    10 1   
    15     7    11 1   
    16     8    16 1   
@<TRIPOS>SUBSTRUCTURE
     1 FCR         1 TEMP              0 ****  ****    0 ROOT
