@<TRIPOS>MOLECULE
FCR
   16    16     1     0     0
SMALL
No Charge or Current Charge


@<TRIPOS>ATOM
      1 C1           0.0180    -0.0180    -0.3340 ca         1 FCR      -0.241300
      2 C2           1.2560    -0.1360     0.3370 ca         1 FCR      -0.017500
      3 C3           1.3090    -0.0810     1.7400 ca         1 FCR      -0.187000
      4 C4           0.1360     0.0950     2.4840 ca         1 FCR       0.172100
      5 C5          -1.0970     0.2230     1.8290 ca         1 FCR      -0.187000
      6 C6          -1.1580     0.1690     0.4250 ca         1 FCR      -0.017500
      7 C7          -0.0440    -0.0660    -1.8640 c3         1 FCR       0.362300
      8 O4           0.2020     0.1470     3.8440 oh         1 FCR      -0.525100
      9 F1          -1.2150    -0.5720    -2.3160 f          1 FCR      -0.115667
     10 F2           0.0840     1.1690    -2.3990 f          1 FCR      -0.115667
     11 F3           0.9370    -0.8300    -2.3960 f          1 FCR      -0.115667
     12 H2           2.1790    -0.2670    -0.2250 ha         1 FCR       0.130000
     13 H3           2.2650    -0.1750     2.2490 ha         1 FCR       0.128500
     14 H5          -2.0130     0.3650     2.3970 ha         1 FCR       0.128500
     15 H6          -2.1230     0.2770    -0.0680 ha         1 FCR       0.130000
     16 H4          -0.7050     0.2750     4.1930 ho         1 FCR       0.471000
@<TRIPOS>BOND
     1     1     2 ar  
     2     1     6 ar  
     3     1     7 1   
     4     2     3 ar  
     5     2    12 1   
     6     3     4 ar  
     7     3    13 1   
     8     4     5 ar  
     9     4     8 1   
    10     5     6 ar  
    11     5    14 1   
    12     6    15 1   
    13     7     9 1   
    14     7    10 1   
    15     7    11 1   
    16     8    16 1   
@<TRIPOS>SUBSTRUCTURE
     1 FCR         1 TEMP              0 ****  ****    0 ROOT
