@<TRIPOS>MOLECULE
FCS
   53    55     1     0     0
SMALL
No Charge or Current Charge


@<TRIPOS>ATOM
      1 N2          -1.1220     1.2400     0.1640 nb         1 FCS      -0.241000
      2 C3           1.2500     1.6280     0.3560 ca         1 FCS      -0.224000
      3 C4           1.4440     0.2560     0.0680 ca         1 FCS       0.394900
      4 C5           3.6940     2.1290     0.1230 c          1 FCS       0.569000
      5 C6           3.8520     0.6820    -0.4380 c6         1 FCS       0.145500
      6 C8           1.9040     4.9200    -0.0230 c1         1 FCS      -0.182100
      7 C9           1.6670     5.7350    -0.8870 c1         1 FCS      -0.205000
      8 C11          4.3910    -2.2500     0.1670 c3         1 FCS      -0.089400
      9 C12          4.5300    -3.7950     0.2160 c3         1 FCS      -0.059700
     10 C15          3.9840     0.7570    -1.9850 c3         1 FCS      -0.117100
     11 C16         -3.2410    -0.9010    -0.1320 ca         1 FCS       0.344000
     12 C17         -3.8970    -0.0040     0.7280 ca         1 FCS      -0.183000
     13 C18         -5.2990     0.0150     0.7970 ca         1 FCS       0.161000
     14 C19         -6.0690    -0.8690     0.0130 ca         1 FCS       0.030100
     15 C20         -5.4010    -1.7760    -0.8350 ca         1 FCS       0.161000
     16 C21         -3.9990    -1.7940    -0.9020 ca         1 FCS      -0.183000
     17 N1           0.4060    -0.5840    -0.0980 nb         1 FCS      -0.303000
     18 C1          -0.8190    -0.0550    -0.0150 ca         1 FCS       0.403900
     19 C2          -0.0880     2.0830     0.3320 ca         1 FCS       0.132900
     20 N3           2.3750     2.5450     0.4340 n          1 FCS      -0.191400
     21 N4           2.7480    -0.2780    -0.0870 nh         1 FCS      -0.762300
     22 O1           4.6730     2.8510     0.2950 o          1 FCS      -0.532000
     23 C13          4.2610    -4.4640    -1.1530 c3         1 FCS      -0.090100
     24 C14          5.9150    -4.2090     0.7640 c3         1 FCS      -0.090100
     25 N5          -1.8490    -0.9610    -0.2210 nu         1 FCS      -0.927900
     26 F1          -6.1100    -2.6410    -1.5950 f          1 FCS      -0.170500
     27 F2          -5.9030     0.8900     1.6340 f          1 FCS      -0.170500
     28 O2          -7.4440    -0.8530     0.0790 oh         1 FCS      -0.508100
     29 H1           4.8100     0.3400    -0.0220 h1         1 FCS       0.096700
     30 H2           3.0710     4.2030     1.5710 h1         1 FCS       0.081700
     31 H3           1.3530     3.8810     1.7220 h1         1 FCS       0.081700
     32 H4           1.4560     6.4460    -1.6610 ha         1 FCS       0.258000
     33 H5           2.7720    -2.0430    -1.2630 h1         1 FCS       0.058200
     34 H6           2.2670    -2.2850     0.4130 h1         1 FCS       0.058200
     35 H7           5.1310    -1.8520    -0.5370 hc         1 FCS       0.048200
     36 H8           4.6370    -1.8440     1.1560 hc         1 FCS       0.048200
     37 H9           3.7800    -4.1760     0.9210 hc         1 FCS       0.048700
     38 H10          3.0620     1.1330    -2.4440 hc         1 FCS       0.054033
     39 H11          4.8020     1.4260    -2.2790 hc         1 FCS       0.054033
     40 H12          4.1970    -0.2280    -2.4170 hc         1 FCS       0.054033
     41 H13         -3.3320     0.6700     1.3610 ha         1 FCS       0.155000
     42 H14         -3.5080    -2.5000    -1.5640 ha         1 FCS       0.155000
     43 H15         -0.3480     3.1320     0.4530 h4         1 FCS       0.035100
     44 H16          4.9430    -4.0770    -1.9190 hc         1 FCS       0.034700
     45 H17          4.4020    -5.5500    -1.0870 hc         1 FCS       0.034700
     46 H18          3.2310    -4.2870    -1.4860 hc         1 FCS       0.034700
     47 H19          6.0820    -3.7810     1.7600 hc         1 FCS       0.034700
     48 H20          5.9900    -5.2990     0.8500 hc         1 FCS       0.034700
     49 H21          6.7180    -3.8610     0.1020 hc         1 FCS       0.034700
     50 H22         -1.5010    -1.8480    -0.5840 hn         1 FCS       0.512000
     51 H23         -7.8000    -1.5360    -0.5320 ho         1 FCS       0.476000
     52 C7           2.1820     3.9020     1.0030 c3         1 FCS       0.184100
     53 C10          2.9800    -1.7460    -0.2260 c3         1 FCS       0.219800
@<TRIPOS>BOND
     1     1    18 ar  
     2     1    19 ar  
     3     2     3 ar  
     4     2    19 ar  
     5     2    20 1   
     6     3    17 ar  
     7     3    21 1   
     8     4     5 1   
     9     4    20 1   
    10     4    22 2   
    11     5    10 1   
    12     5    21 1   
    13     5    29 1   
    14     6     7 3   
    15     6    52 1   
    16     7    32 1   
    17     8     9 1   
    18     8    35 1   
    19     8    36 1   
    20     8    53 1   
    21     9    23 1   
    22     9    24 1   
    23     9    37 1   
    24    10    38 1   
    25    10    39 1   
    26    10    40 1   
    27    11    12 ar  
    28    11    16 ar  
    29    11    25 1   
    30    12    13 ar  
    31    12    41 1   
    32    13    14 ar  
    33    13    27 1   
    34    14    15 ar  
    35    14    28 1   
    36    15    16 ar  
    37    15    26 1   
    38    16    42 1   
    39    17    18 ar  
    40    18    25 1   
    41    19    43 1   
    42    20    52 1   
    43    21    53 1   
    44    23    44 1   
    45    23    45 1   
    46    23    46 1   
    47    24    47 1   
    48    24    48 1   
    49    24    49 1   
    50    25    50 1   
    51    28    51 1   
    52    30    52 1   
    53    31    52 1   
    54    33    53 1   
    55    34    53 1   
@<TRIPOS>SUBSTRUCTURE
     1 FCS         1 TEMP              0 ****  ****    0 ROOT
