@<TRIPOS>MOLECULE
FCS
   53    55     1     0     0
SMALL
bcc


@<TRIPOS>ATOM
      1 N2          -1.0470     1.1650     0.1760 nb         1 FCS      -0.767000
      2 C3           1.2990     1.5580     0.2840 ca         1 FCS      -0.262000
      3 C4           1.4930     0.1810     0.0100 ca         1 FCS       0.723200
      4 C5           3.6590     1.9890     0.1910 c          1 FCS       0.711500
      5 C6           3.7720     0.6550    -0.5240 c6         1 FCS       0.145500
      6 C8           1.8830     4.7080     0.2290 c1         1 FCS      -0.182100
      7 C9           1.6090     5.5670    -0.5650 c1         1 FCS      -0.117500
      8 C11          4.3430    -2.1880     0.1450 c3         1 FCS      -0.089400
      9 C12          4.4600    -3.7140     0.1550 c3         1 FCS      -0.059700
     10 C15          3.7560     0.8770    -2.0380 c3         1 FCS      -0.117100
     11 C16         -3.1420    -0.8850    -0.1270 ca         1 FCS       0.205600
     12 C17         -3.8130     0.3100     0.1370 ca         1 FCS      -0.201000
     13 C18         -5.1930     0.3160     0.1480 ca         1 FCS       0.125900
     14 C19         -5.9750    -0.8050    -0.0860 ca         1 FCS       0.030100
     15 C20         -5.2690    -1.9730    -0.3400 ca         1 FCS       0.125900
     16 C21         -3.8960    -2.0380    -0.3680 ca         1 FCS      -0.201000
     17 N1           0.4630    -0.6300    -0.1290 nb         1 FCS      -0.829000
     18 C1          -0.7620    -0.1070    -0.0250 ca         1 FCS       0.929900
     19 C2          -0.0020     1.9850     0.3320 ca         1 FCS       0.461200
     20 N3           2.4090     2.3680     0.5570 n          1 FCS      -0.351000
     21 N4           2.7570    -0.2880    -0.0830 nh         1 FCS      -0.762300
     22 O1           4.6390     2.6840     0.3760 o          1 FCS      -0.607500
     23 C13          4.2790    -4.3150    -1.2370 c3         1 FCS      -0.090100
     24 C14          5.8040    -4.1290     0.7440 c3         1 FCS      -0.090100
     25 N5          -1.7640    -1.0260    -0.1640 nu         1 FCS      -0.734300
     26 F1          -5.9820    -3.0880    -0.5720 f          1 FCS      -0.135400
     27 F2          -5.8290     1.4690     0.4010 f          1 FCS      -0.135400
     28 O2          -7.3170    -0.7040    -0.0520 oh         1 FCS      -0.469100
     29 H1           4.7450     0.2620    -0.2360 h1         1 FCS       0.096700
     30 H2           3.1240     3.9270     1.7280 h1         1 FCS       0.081700
     31 H3           1.4240     3.5710     1.9380 h1         1 FCS       0.081700
     32 H4           1.3650     6.3290    -1.2700 ha         1 FCS       0.170500
     33 H5           2.8450    -1.9260    -1.4020 h1         1 FCS       0.058200
     34 H6           2.2040    -2.2550     0.1920 h1         1 FCS       0.058200
     35 H7           5.1490    -1.7880    -0.4810 hc         1 FCS       0.048200
     36 H8           4.5140    -1.8100     1.1580 hc         1 FCS       0.048200
     37 H9           3.6680    -4.1080     0.8040 hc         1 FCS       0.048700
     38 H10          2.8020     1.2850    -2.3740 hc         1 FCS       0.054033
     39 H11          4.5480     1.5640    -2.3330 hc         1 FCS       0.054033
     40 H12          3.9260    -0.0650    -2.5580 hc         1 FCS       0.054033
     41 H13         -3.2740     1.2240     0.3290 ha         1 FCS       0.173000
     42 H14         -3.4160    -2.9850    -0.5800 ha         1 FCS       0.173000
     43 H15         -0.2460     3.0250     0.5140 h4         1 FCS       0.035100
     44 H16          5.0100    -3.9010    -1.9360 hc         1 FCS       0.034700
     45 H17          4.4200    -5.3970    -1.2140 hc         1 FCS       0.034700
     46 H18          3.2860    -4.1270    -1.6460 hc         1 FCS       0.034700
     47 H19          5.9300    -3.7550     1.7610 hc         1 FCS       0.034700
     48 H20          5.9030    -5.2150     0.7750 hc         1 FCS       0.034700
     49 H21          6.6290    -3.7380     0.1430 hc         1 FCS       0.034700
     50 H22         -1.4260    -1.9590    -0.3430 hn         1 FCS       0.456800
     51 H23         -7.7290    -1.5360    -0.3100 ho         1 FCS       0.437000
     52 C7           2.2150     3.6610     1.1910 c3         1 FCS       0.184100
     53 C10          2.9810    -1.7070    -0.3380 c3         1 FCS       0.219800
@<TRIPOS>BOND
     1     1    18 ar  
     2     1    19 ar  
     3     2     3 ar  
     4     2    19 ar  
     5     2    20 1   
     6     3    17 ar  
     7     3    21 1   
     8     4     5 1   
     9     4    20 1   
    10     4    22 2   
    11     5    10 1   
    12     5    21 1   
    13     5    29 1   
    14     6     7 3   
    15     6    52 1   
    16     7    32 1   
    17     8     9 1   
    18     8    35 1   
    19     8    36 1   
    20     8    53 1   
    21     9    23 1   
    22     9    24 1   
    23     9    37 1   
    24    10    38 1   
    25    10    39 1   
    26    10    40 1   
    27    11    12 ar  
    28    11    16 ar  
    29    11    25 1   
    30    12    13 ar  
    31    12    41 1   
    32    13    14 ar  
    33    13    27 1   
    34    14    15 ar  
    35    14    28 1   
    36    15    16 ar  
    37    15    26 1   
    38    16    42 1   
    39    17    18 ar  
    40    18    25 1   
    41    19    43 1   
    42    20    52 1   
    43    21    53 1   
    44    23    44 1   
    45    23    45 1   
    46    23    46 1   
    47    24    47 1   
    48    24    48 1   
    49    24    49 1   
    50    25    50 1   
    51    28    51 1   
    52    30    52 1   
    53    31    52 1   
    54    33    53 1   
    55    34    53 1   
@<TRIPOS>SUBSTRUCTURE
     1 FCS         1 TEMP              0 ****  ****    0 ROOT
