@<TRIPOS>MOLECULE
FCV
   40    42     1     0     0
SMALL
No Charge or Current Charge


@<TRIPOS>ATOM
      1 C10          9.2790   -16.0760   -16.4540 ca         1 FCV      -0.072000
      2 C11         10.0480   -15.1220   -15.7710 ca         1 FCV      -0.158000
      3 C12          9.6170   -13.7860   -15.7530 ca         1 FCV       0.342900
      4 C21          3.3690    -8.4040   -20.0410 ca         1 FCV      -0.315500
      5 C22          2.5060    -8.7510   -21.1040 ca         1 FCV       0.012000
      6 C02          4.7420   -13.9310   -19.4320 ca         1 FCV       0.154000
      7 C03          4.1440   -12.7450   -18.9860 ca         1 FCV      -0.112000
      8 C04          4.7020   -12.0330   -17.8970 ca         1 FCV      -0.128600
      9 C05          5.8720   -12.5410   -17.2860 ca         1 FCV      -0.034000
     10 C06          6.4910   -13.7480   -17.7190 cp         1 FCV      -0.122500
     11 C07          5.8960   -14.4300   -18.8130 ca         1 FCV      -0.114000
     12 C08          7.7350   -14.2720   -17.0470 cp         1 FCV       0.392500
     13 C09          8.1080   -15.6410   -17.0970 ca         1 FCV      -0.148000
     14 C23          3.0210    -9.3500   -22.2670 ca         1 FCV      -0.145000
     15 C24          4.3950    -9.6120   -22.3790 ca         1 FCV      -0.030000
     16 C25          5.2550    -9.2720   -21.3220 ca         1 FCV      -0.172000
     17 C26          4.7490    -8.6710   -20.1590 ca         1 FCV       0.263000
     18 F27          5.6180    -8.3770   -19.1680 f          1 FCV      -0.164000
     19 N13          8.4880   -13.3720   -16.3710 nb         1 FCV      -0.660000
     20 N16          2.8720   -10.3640   -17.9180 ns         1 FCV      -0.359300
     21 N17          2.2470    -9.0720   -17.6930 n7         1 FCV      -0.611300
     22 O15          4.6690   -10.0410   -16.5530 o          1 FCV      -0.566100
     23 O19          3.6970    -7.0000   -17.7660 o          1 FCV      -0.526500
     24 O20          1.3920    -7.0310   -18.9010 o          1 FCV      -0.526500
     25 S18          2.6620    -7.6770   -18.5520 sy         1 FCV       1.159600
     26 H1           9.5780   -17.1220   -16.4810 ha         1 FCV       0.122000
     27 H2          10.9620   -15.4070   -15.2570 ha         1 FCV       0.127000
     28 H3          10.1920   -13.0250   -15.2270 h4         1 FCV       0.025100
     29 H4           1.4350    -8.5670   -21.0340 ha         1 FCV       0.146000
     30 H5           3.2610   -12.3910   -19.5100 ha         1 FCV       0.139000
     31 H6           6.3060   -11.9960   -16.4500 ha         1 FCV       0.158000
     32 H7           6.3340   -15.3430   -19.2050 ha         1 FCV       0.136000
     33 H8           7.4890   -16.3650   -17.6160 ha         1 FCV       0.124000
     34 H9           2.3510    -9.6160   -23.0810 ha         1 FCV       0.127000
     35 H10          4.7920   -10.0780   -23.2790 ha         1 FCV       0.123000
     36 H11          6.3200    -9.4760   -21.4020 ha         1 FCV       0.137000
     37 H12          2.4300   -11.0510   -18.5240 hn         1 FCV       0.351500
     38 H13          2.2610    -8.7690   -16.7150 hn         1 FCV       0.492000
     39 F01          4.2060   -14.5960   -20.4790 f          1 FCV      -0.179000
     40 C14          4.1030   -10.7370   -17.3870 c          1 FCV       0.609700
@<TRIPOS>BOND
     1     1     2 ar  
     2     1    13 ar  
     3     1    26 1   
     4     2     3 ar  
     5     2    27 1   
     6     3    19 ar  
     7     3    28 1   
     8     4     5 ar  
     9     4    17 ar  
    10     4    25 1   
    11     5    14 ar  
    12     5    29 1   
    13     6     7 ar  
    14     6    11 ar  
    15     6    39 1   
    16     7     8 ar  
    17     7    30 1   
    18     8     9 ar  
    19     8    40 1   
    20     9    10 ar  
    21     9    31 1   
    22    10    11 ar  
    23    10    12 1   
    24    11    32 1   
    25    12    13 ar  
    26    12    19 ar  
    27    13    33 1   
    28    14    15 ar  
    29    14    34 1   
    30    15    16 ar  
    31    15    35 1   
    32    16    17 ar  
    33    16    36 1   
    34    17    18 1   
    35    20    21 1   
    36    20    37 1   
    37    20    40 1   
    38    21    25 1   
    39    21    38 1   
    40    22    40 2   
    41    23    25 2   
    42    24    25 2   
@<TRIPOS>SUBSTRUCTURE
     1 FCV         1 TEMP              0 ****  ****    0 ROOT
