@<TRIPOS>MOLECULE
FCV
   40    42     1     0     0
SMALL
abcg2


@<TRIPOS>ATOM
      1 C10          8.8740   -16.5380   -15.1160 ca         1 FCV      -0.072000
      2 C11          9.3250   -15.7090   -14.0980 ca         1 FCV      -0.158000
      3 C12          9.0410   -14.3510   -14.1860 ca         1 FCV       0.342900
      4 C21          2.9360    -8.2310   -20.6950 ca         1 FCV      -0.315500
      5 C22          1.8000    -7.4780   -20.9890 ca         1 FCV       0.012000
      6 C02          6.5260   -13.8380   -19.5880 ca         1 FCV       0.154000
      7 C03          5.7760   -12.6990   -19.3720 ca         1 FCV      -0.112000
      8 C04          5.7370   -12.1820   -18.0750 ca         1 FCV      -0.128600
      9 C05          6.4480   -12.8000   -17.0510 ca         1 FCV      -0.034000
     10 C06          7.1920   -13.9560   -17.2920 cp         1 FCV      -0.122500
     11 C07          7.2250   -14.4820   -18.5860 ca         1 FCV      -0.114000
     12 C08          7.9380   -14.6040   -16.1860 cp         1 FCV       0.392500
     13 C09          8.1710   -15.9820   -16.1740 ca         1 FCV      -0.148000
     14 C23          1.2550    -7.5130   -22.2650 ca         1 FCV      -0.145000
     15 C24          1.8400    -8.3020   -23.2500 ca         1 FCV      -0.030000
     16 C25          2.9700    -9.0610   -22.9670 ca         1 FCV      -0.172000
     17 C26          3.5050    -9.0150   -21.6950 ca         1 FCV       0.263000
     18 F27          4.5950    -9.7600   -21.4310 f          1 FCV      -0.164000
     19 N13          8.3660   -13.8050   -15.1970 nb         1 FCV      -0.660000
     20 N16          3.9100   -10.6710   -18.5580 ns         1 FCV      -0.359300
     21 N17          3.1140    -9.5620   -18.3480 n7         1 FCV      -0.611300
     22 O15          5.2530   -10.2260   -16.7910 o          1 FCV      -0.566100
     23 O19          5.0580    -8.0700   -19.1850 o          1 FCV      -0.526500
     24 O20          2.9190    -7.1060   -18.3340 o          1 FCV      -0.526500
     25 S18          3.6250    -8.1250   -19.0670 sy         1 FCV       1.159600
     26 H1           9.0610   -17.6040   -15.0850 ha         1 FCV       0.122000
     27 H2           9.8780   -16.0980   -13.2540 ha         1 FCV       0.127000
     28 H3           9.3730   -13.6710   -13.4090 h4         1 FCV       0.025100
     29 H4           1.3600    -6.8660   -20.2150 ha         1 FCV       0.146000
     30 H5           5.2740   -12.2250   -20.2030 ha         1 FCV       0.139000
     31 H6           6.4150   -12.3830   -16.0570 ha         1 FCV       0.158000
     32 H7           7.8070   -15.3600   -18.8290 ha         1 FCV       0.136000
     33 H8           7.7940   -16.6100   -16.9690 ha         1 FCV       0.124000
     34 H9           0.3770    -6.9220   -22.4880 ha         1 FCV       0.127000
     35 H10          1.4170    -8.3310   -24.2450 ha         1 FCV       0.123000
     36 H11          3.4400    -9.6840   -23.7160 ha         1 FCV       0.137000
     37 H12          3.5270   -11.3640   -19.1810 hn         1 FCV       0.351500
     38 H13          2.9080    -9.3930   -17.3650 hn         1 FCV       0.492000
     39 F01          6.5950   -14.3370   -20.8450 f          1 FCV      -0.179000
     40 C14          4.9690   -10.9460   -17.7370 c          1 FCV       0.609700
@<TRIPOS>BOND
     1     1     2 ar  
     2     1    13 ar  
     3     1    26 1   
     4     2     3 ar  
     5     2    27 1   
     6     3    19 ar  
     7     3    28 1   
     8     4     5 ar  
     9     4    17 ar  
    10     4    25 1   
    11     5    14 ar  
    12     5    29 1   
    13     6     7 ar  
    14     6    11 ar  
    15     6    39 1   
    16     7     8 ar  
    17     7    30 1   
    18     8     9 ar  
    19     8    40 1   
    20     9    10 ar  
    21     9    31 1   
    22    10    11 ar  
    23    10    12 1   
    24    11    32 1   
    25    12    13 ar  
    26    12    19 ar  
    27    13    33 1   
    28    14    15 ar  
    29    14    34 1   
    30    15    16 ar  
    31    15    35 1   
    32    16    17 ar  
    33    16    36 1   
    34    17    18 1   
    35    20    21 1   
    36    20    37 1   
    37    20    40 1   
    38    21    25 1   
    39    21    38 1   
    40    22    40 2   
    41    23    25 2   
    42    24    25 2   
@<TRIPOS>SUBSTRUCTURE
     1 FCV         1 TEMP              0 ****  ****    0 ROOT
