@<TRIPOS>MOLECULE
FCW
   33    35     1     0     0
SMALL
abcg2


@<TRIPOS>ATOM
      1 C1           0.1720    -1.3180    -0.0030 ca         1 FCW      -0.073000
      2 C2          -1.1560    -1.7330    -0.0060 ca         1 FCW      -0.143000
      3 C3          -2.1330    -0.7560    -0.0050 ca         1 FCW      -0.033000
      4 C4          -1.8090     0.5980    -0.0010 ca         1 FCW      -0.143300
      5 C5          -0.4860     0.9910     0.0020 ca         1 FCW      -0.055000
      6 C6           0.5300     0.0310     0.0010 ca         1 FCW      -0.101300
      7 C7           1.9810     0.4470     0.0020 c6         1 FCW      -0.012400
      8 C8           2.7130    -0.0360     1.2600 c6         1 FCW      -0.068400
      9 C9           4.1810     0.3780     1.2580 c6         1 FCW      -0.074400
     10 C10          4.8900    -0.1060    -0.0010 c6         1 FCW      -0.075400
     11 C11          4.1800     0.3920    -1.2550 c6         1 FCW      -0.074400
     12 C12          2.7120    -0.0220    -1.2610 c6         1 FCW      -0.068400
     13 C13         -3.0840     1.3800     0.0000 c5         1 FCW      -0.118100
     14 C14         -4.1590     0.3030    -0.0060 c          1 FCW       0.564000
     15 O15         -5.3620     0.4650    -0.0080 o          1 FCW      -0.529000
     16 N16         -3.5170    -0.8970    -0.0080 ns         1 FCW      -0.148000
     17 H1           0.9450    -2.0770    -0.0040 ha         1 FCW       0.115000
     18 H2          -1.4060    -2.7860    -0.0080 ha         1 FCW       0.121000
     19 H5          -0.2320     2.0450     0.0050 ha         1 FCW       0.116000
     20 H7           2.0130     1.5440     0.0080 hc         1 FCW       0.049700
     21 H8           2.2100     0.3550     2.1480 hc         1 FCW       0.041200
     22 H8A          2.6470    -1.1280     1.3230 hc         1 FCW       0.041200
     23 H9           4.2530     1.4700     1.3210 hc         1 FCW       0.039200
     24 H9A          4.6770    -0.0150     2.1490 hc         1 FCW       0.039200
     25 H10          5.9340     0.2170     0.0000 hc         1 FCW       0.039200
     26 H10A         4.9030    -1.2020    -0.0070 hc         1 FCW       0.039200
     27 H11          4.2500     1.4840    -1.3040 hc         1 FCW       0.039200
     28 H11A         4.6770     0.0110    -2.1510 hc         1 FCW       0.039200
     29 H12          2.6450    -1.1130    -1.3370 hc         1 FCW       0.041200
     30 H12A         2.2090     0.3800    -2.1440 hc         1 FCW       0.041200
     31 H13         -3.2000     2.0160     0.8820 hc         1 FCW       0.089700
     32 H13A        -3.1970     2.0280    -0.8720 hc         1 FCW       0.089700
     33 HN16        -4.0000    -1.7830    -0.0110 hn         1 FCW       0.171000
@<TRIPOS>BOND
     1     1     2 ar  
     2     1     6 ar  
     3     1    17 1   
     4     2     3 ar  
     5     2    18 1   
     6     3     4 ar  
     7     3    16 1   
     8     4     5 ar  
     9     4    13 1   
    10     5     6 ar  
    11     5    19 1   
    12     6     7 1   
    13     7     8 1   
    14     7    12 1   
    15     7    20 1   
    16     8     9 1   
    17     8    21 1   
    18     8    22 1   
    19     9    10 1   
    20     9    23 1   
    21     9    24 1   
    22    10    11 1   
    23    10    25 1   
    24    10    26 1   
    25    11    12 1   
    26    11    27 1   
    27    11    28 1   
    28    12    29 1   
    29    12    30 1   
    30    13    14 1   
    31    13    31 1   
    32    13    32 1   
    33    14    15 2   
    34    14    16 1   
    35    16    33 1   
@<TRIPOS>SUBSTRUCTURE
     1 FCW         1 TEMP              0 ****  ****    0 ROOT
