@<TRIPOS>MOLECULE
FCW
   33    35     1     0     0
SMALL
No Charge or Current Charge


@<TRIPOS>ATOM
      1 C1           0.1580    -1.3740    -0.0080 ca         1 FCW      -0.073000
      2 C2          -1.1960    -1.7680    -0.0100 ca         1 FCW      -0.143000
      3 C3          -2.1630    -0.7590    -0.0060 ca         1 FCW      -0.033000
      4 C4          -1.8400     0.5780     0.0000 ca         1 FCW      -0.143300
      5 C5          -0.5000     0.9900     0.0020 ca         1 FCW      -0.055000
      6 C6           0.5150     0.0020    -0.0010 ca         1 FCW      -0.101300
      7 C7           1.9910     0.4290     0.0010 c6         1 FCW      -0.012400
      8 C8           2.7330    -0.0620     1.2760 c6         1 FCW      -0.068400
      9 C9           4.2140     0.3950     1.2800 c6         1 FCW      -0.074400
     10 C10          4.9490    -0.0750     0.0000 c6         1 FCW      -0.075400
     11 C11          4.2150     0.4060    -1.2750 c6         1 FCW      -0.074400
     12 C12          2.7350    -0.0510    -1.2770 c6         1 FCW      -0.068400
     13 C13         -3.1170     1.4140     0.0030 c5         1 FCW      -0.118100
     14 C14         -4.2500     0.3370    -0.0020 c          1 FCW       0.564000
     15 O15         -5.4680     0.4700    -0.0020 o          1 FCW      -0.529000
     16 N16         -3.5490    -0.8530    -0.0070 ns         1 FCW      -0.148000
     17 H1           0.9310    -2.1390    -0.0100 ha         1 FCW       0.115000
     18 H2          -1.4770    -2.8180    -0.0150 ha         1 FCW       0.121000
     19 H5          -0.2530     2.0500     0.0070 ha         1 FCW       0.116000
     20 H7           2.0280     1.5270     0.0060 hc         1 FCW       0.049700
     21 H8           2.2270     0.3220     2.1710 hc         1 FCW       0.041200
     22 H8A          2.6920    -1.1580     1.3420 hc         1 FCW       0.041200
     23 H9           4.2630     1.4900     1.3530 hc         1 FCW       0.039200
     24 H9A          4.7230    -0.0000     2.1690 hc         1 FCW       0.039200
     25 H10          5.9810     0.3020     0.0020 hc         1 FCW       0.039200
     26 H10A         5.0180    -1.1720    -0.0040 hc         1 FCW       0.039200
     27 H11          4.2640     1.5020    -1.3390 hc         1 FCW       0.039200
     28 H11A         4.7250     0.0190    -2.1680 hc         1 FCW       0.039200
     29 H12          2.6930    -1.1460    -1.3530 hc         1 FCW       0.041200
     30 H12A         2.2290     0.3420    -2.1700 hc         1 FCW       0.041200
     31 H13         -3.2350     2.0500     0.8860 hc         1 FCW       0.089700
     32 H13A        -3.2340     2.0580    -0.8750 hc         1 FCW       0.089700
     33 HN16        -4.0220    -1.7470    -0.0110 hn         1 FCW       0.171000
@<TRIPOS>BOND
     1     1     2 ar  
     2     1     6 ar  
     3     1    17 1   
     4     2     3 ar  
     5     2    18 1   
     6     3     4 ar  
     7     3    16 1   
     8     4     5 ar  
     9     4    13 1   
    10     5     6 ar  
    11     5    19 1   
    12     6     7 1   
    13     7     8 1   
    14     7    12 1   
    15     7    20 1   
    16     8     9 1   
    17     8    21 1   
    18     8    22 1   
    19     9    10 1   
    20     9    23 1   
    21     9    24 1   
    22    10    11 1   
    23    10    25 1   
    24    10    26 1   
    25    11    12 1   
    26    11    27 1   
    27    11    28 1   
    28    12    29 1   
    29    12    30 1   
    30    13    14 1   
    31    13    31 1   
    32    13    32 1   
    33    14    15 2   
    34    14    16 1   
    35    16    33 1   
@<TRIPOS>SUBSTRUCTURE
     1 FCW         1 TEMP              0 ****  ****    0 ROOT
