@<TRIPOS>MOLECULE
FCY
   13    12     1     0     0
SMALL
bcc


@<TRIPOS>ATOM
      1 N            1.5930     0.5240    -0.0820 n8         1 FCY      -0.881800
      2 CA           0.1680     0.4450     0.1670 c3         1 FCY       0.023500
      3 C           -0.1240    -0.0190     1.6190 c          1 FCY       0.934600
      4 O            0.7890    -0.6150     2.2180 o          1 FCY      -0.827800
      5 CB          -0.5960    -0.5010    -0.7700 c3         1 FCY       0.049700
      6 SG          -0.4730     0.0900    -2.4980 sh         1 FCY      -0.502900
      7 OXT         -1.2720     0.2170     2.0420 o          1 FCY      -0.827800
      8 H            1.7750     0.5500    -1.0790 hn         1 FCY       0.331300
      9 HN2          2.0310    -0.3130     0.2810 hn         1 FCY       0.331300
     10 HA          -0.2650     1.4450     0.0490 h1         1 FCY       0.059700
     11 HB1         -0.1760    -1.5060    -0.7160 h1         1 FCY       0.059700
     12 HB2         -1.6460    -0.5470    -0.4860 h1         1 FCY       0.059700
     13 HG          -0.7380    -1.0660    -3.1150 hs         1 FCY       0.189800
@<TRIPOS>BOND
     1     1     2 1   
     2     1     8 1   
     3     1     9 1   
     4     2     3 1   
     5     2     5 1   
     6     2    10 1   
     7     3     4 1   
     8     3     7 1   
     9     5     6 1   
    10     5    11 1   
    11     5    12 1   
    12     6    13 1   
@<TRIPOS>SUBSTRUCTURE
     1 FCY         1 TEMP              0 ****  ****    0 ROOT
