@<TRIPOS>MOLECULE
FCY
   13    12     1     0     0
SMALL
No Charge or Current Charge


@<TRIPOS>ATOM
      1 N            1.5890     0.6880    -0.0910 n8         1 FCY      -0.992200
      2 CA           0.1300     0.4280     0.2230 c3         1 FCY       0.023500
      3 C           -0.2140    -0.0420     1.6910 c          1 FCY       0.724000
      4 O            0.2630    -1.0960     2.0940 o          1 FCY      -0.722500
      5 CB          -0.4840    -0.5630    -0.8000 c3         1 FCY       0.097600
      6 SG          -0.2330    -0.0700    -2.5800 sh         1 FCY      -0.550800
      7 OXT         -0.9000     0.6920     2.3910 o          1 FCY      -0.722500
      8 H            1.6730     0.7810    -1.1110 hn         1 FCY       0.386500
      9 HN2          2.1270    -0.1620     0.1170 hn         1 FCY       0.386500
     10 HA          -0.3960     1.3830     0.0800 h1         1 FCY       0.059700
     11 HB1         -0.0430    -1.5580    -0.6540 h1         1 FCY       0.059700
     12 HB2         -1.5630    -0.6470    -0.6140 h1         1 FCY       0.059700
     13 HG          -0.8820    -1.1320    -3.1180 hs         1 FCY       0.189800
@<TRIPOS>BOND
     1     1     2 1   
     2     1     8 1   
     3     1     9 1   
     4     2     3 1   
     5     2     5 1   
     6     2    10 1   
     7     3     4 1   
     8     3     7 1   
     9     5     6 1   
    10     5    11 1   
    11     5    12 1   
    12     6    13 1   
@<TRIPOS>SUBSTRUCTURE
     1 FCY         1 TEMP              0 ****  ****    0 ROOT
