@<TRIPOS>MOLECULE
FCZ
   41    44     1     0     0
SMALL
No Charge or Current Charge


@<TRIPOS>ATOM
      1 C4          -1.7260    -0.1730    -0.5650 ca         1 FCZ      -0.055000
      2 C5          -3.6910     0.7440     0.4840 ca         1 FCZ       0.018100
      3 C6          -3.1180    -0.0920    -0.4330 ca         1 FCZ       0.092400
      4 C8          -5.1810    -0.2760    -0.5740 cc         1 FCZ       0.762500
      5 C10          0.5390     0.5880     0.1520 cc         1 FCZ       0.443500
      6 C14          2.6420    -0.1670    -0.1110 ca         1 FCZ       0.182500
      7 C15          1.3700    -0.5970     0.1550 ca         1 FCZ      -0.372900
      8 C1          -2.9350     1.5650     1.3260 ca         1 FCZ      -0.088000
      9 C2          -1.5300     1.5010     1.2140 ca         1 FCZ      -0.083000
     10 C3          -0.9160     0.6150     0.2890 ca         1 FCZ      -0.099900
     11 N7          -4.0890    -0.7680    -1.1440 nd         1 FCZ      -0.653100
     12 O9          -5.0430     0.6610     0.4270 os         1 FCZ      -0.309700
     13 N11         -6.4050    -0.6240    -0.9540 nv         1 FCZ      -1.020200
     14 N12          2.5440     1.2090    -0.2250 na         1 FCZ      -0.030100
     15 N13          1.2540     1.7020    -0.0430 nd         1 FCZ      -0.521100
     16 C16          1.1410    -1.9530     0.4540 ca         1 FCZ       0.251300
     17 N17          2.1760    -2.8190     0.3980 nb         1 FCZ      -0.283000
     18 C18          3.3770    -2.3020     0.0830 ca         1 FCZ       0.416900
     19 N19          3.6830    -1.0180    -0.1610 nb         1 FCZ      -0.282000
     20 C20          3.7090     2.0900    -0.4740 c3         1 FCZ       0.113300
     21 C21          3.5400     2.9210    -1.7660 c3         1 FCZ      -0.104100
     22 C22          4.0240     2.9830     0.7470 c3         1 FCZ      -0.104100
     23 C23         -0.1930    -2.5260     0.9000 c3         1 FCZ      -0.159400
     24 N24          4.4060    -3.1790     0.0290 nv         1 FCZ      -1.064900
     25 H1          -1.2840    -0.8230    -1.3150 ha         1 FCZ       0.136000
     26 H2          -3.4140     2.2330     2.0380 ha         1 FCZ       0.133000
     27 H3          -0.9130     2.1330     1.8500 ha         1 FCZ       0.130000
     28 H4          -6.4520    -1.0400    -1.8760 hn         1 FCZ       0.501500
     29 H5          -7.1360     0.0390    -0.7310 hn         1 FCZ       0.501500
     30 H6           4.5820     1.4430    -0.6280 h1         1 FCZ       0.079700
     31 H7           2.6980     3.6170    -1.6780 hc         1 FCZ       0.047367
     32 H8           4.4470     3.5020    -1.9720 hc         1 FCZ       0.047367
     33 H9           3.3550     2.2630    -2.6230 hc         1 FCZ       0.047367
     34 H10          4.1840     2.3680     1.6400 hc         1 FCZ       0.047367
     35 H11          4.9330     3.5700     0.5710 hc         1 FCZ       0.047367
     36 H12          3.1990     3.6760     0.9480 hc         1 FCZ       0.047367
     37 H13         -0.8250    -2.7700     0.0390 hc         1 FCZ       0.062367
     38 H14         -0.0570    -3.4490     1.4750 hc         1 FCZ       0.062367
     39 H15         -0.7350    -1.8260     1.5450 hc         1 FCZ       0.062367
     40 H16          4.1870    -4.1720    -0.0150 hn         1 FCZ       0.499000
     41 H17          5.2710    -2.8830    -0.4160 hn         1 FCZ       0.499000
@<TRIPOS>BOND
     1     1     3 ar  
     2     1    10 ar  
     3     1    25 1   
     4     2     3 ar  
     5     2     8 ar  
     6     2    12 1   
     7     3    11 1   
     8     4    11 2   
     9     4    12 1   
    10     4    13 1   
    11     5     7 1   
    12     5    10 1   
    13     5    15 2   
    14     6     7 ar  
    15     6    14 1   
    16     6    19 ar  
    17     7    16 ar  
    18     8     9 ar  
    19     8    26 1   
    20     9    10 ar  
    21     9    27 1   
    22    13    28 1   
    23    13    29 1   
    24    14    15 1   
    25    14    20 1   
    26    16    17 ar  
    27    16    23 1   
    28    17    18 ar  
    29    18    19 ar  
    30    18    24 1   
    31    20    21 1   
    32    20    22 1   
    33    20    30 1   
    34    21    31 1   
    35    21    32 1   
    36    21    33 1   
    37    22    34 1   
    38    22    35 1   
    39    22    36 1   
    40    23    37 1   
    41    23    38 1   
    42    23    39 1   
    43    24    40 1   
    44    24    41 1   
@<TRIPOS>SUBSTRUCTURE
     1 FCZ         1 TEMP              0 ****  ****    0 ROOT
