@<TRIPOS>MOLECULE
FCZ
   41    44     1     0     0
SMALL
bcc


@<TRIPOS>ATOM
      1 C4          -1.7820    -0.2610    -0.5090 ca         1 FCZ      -0.073000
      2 C5          -3.6140     0.9880     0.4060 ca         1 FCZ       0.018100
      3 C6          -3.1460    -0.0600    -0.3830 ca         1 FCZ       0.092400
      4 C8          -5.2540    -0.0910    -0.4670 cc         1 FCZ       0.762500
      5 C10          0.5320     0.4440     0.0610 cc         1 FCZ       0.443500
      6 C14          2.6570    -0.2410    -0.0670 ca         1 FCZ       0.510800
      7 C15          1.3490    -0.7280     0.1020 ca         1 FCZ      -0.503500
      8 C1          -2.8020     1.8620     1.0870 ca         1 FCZ      -0.106000
      9 C2          -1.4340     1.6450     0.9590 ca         1 FCZ      -0.101000
     10 C3          -0.9230     0.5980     0.1800 ca         1 FCZ      -0.099900
     11 N7          -4.2240    -0.7270    -0.9310 nd         1 FCZ      -0.653100
     12 O9          -4.9760     0.9550     0.3450 os         1 FCZ      -0.309700
     13 N11         -6.5460    -0.3700    -0.6550 nv         1 FCZ      -0.909800
     14 N12          2.5640     1.0940    -0.1800 na         1 FCZ      -0.000800
     15 N13          1.2850     1.5040    -0.1040 nd         1 FCZ      -0.521100
     16 C16          1.2540    -2.1110     0.3310 ca         1 FCZ       0.579600
     17 N17          2.3450    -2.8480     0.3150 nb         1 FCZ      -0.809000
     18 C18          3.5450    -2.2610     0.0890 ca         1 FCZ       0.942900
     19 N19          3.7680    -0.9650    -0.0880 nb         1 FCZ      -0.808000
     20 C20          3.6410     2.0580    -0.3500 c3         1 FCZ       0.084000
     21 C21          3.4970     2.7990    -1.6720 c3         1 FCZ      -0.104100
     22 C22          3.6980     3.0080     0.8380 c3         1 FCZ      -0.104100
     23 C23         -0.0330    -2.8170     0.6060 c3         1 FCZ      -0.159400
     24 N24          4.6050    -3.0880     0.0890 nv         1 FCZ      -0.954500
     25 H1          -1.3930    -1.0500    -1.1400 ha         1 FCZ       0.154000
     26 H2          -3.1930     2.6690     1.6920 ha         1 FCZ       0.151000
     27 H3          -0.7470     2.2950     1.4830 ha         1 FCZ       0.148000
     28 H4          -6.7780    -1.0220    -1.3860 hn         1 FCZ       0.446300
     29 H5          -7.2390     0.3310    -0.4510 hn         1 FCZ       0.446300
     30 H6           4.5520     1.4590    -0.3730 h1         1 FCZ       0.079700
     31 H7           2.5860     3.3970    -1.6870 hc         1 FCZ       0.047367
     32 H8           4.3440     3.4720    -1.8100 hc         1 FCZ       0.047367
     33 H9           3.4730     2.1090    -2.5150 hc         1 FCZ       0.047367
     34 H10          3.7940     2.4630     1.7770 hc         1 FCZ       0.047367
     35 H11          4.5590     3.6680     0.7400 hc         1 FCZ       0.047367
     36 H12          2.8010     3.6260     0.8870 hc         1 FCZ       0.047367
     37 H13         -0.5460    -3.0470    -0.3310 hc         1 FCZ       0.062367
     38 H14          0.1570    -3.7570     1.1190 hc         1 FCZ       0.062367
     39 H15         -0.7090    -2.2100     1.2050 hc         1 FCZ       0.062367
     40 H16          4.4520    -4.0810     0.0610 hn         1 FCZ       0.443800
     41 H17          5.5010    -2.7450    -0.2100 hn         1 FCZ       0.443800
@<TRIPOS>BOND
     1     1     3 ar  
     2     1    10 ar  
     3     1    25 1   
     4     2     3 ar  
     5     2     8 ar  
     6     2    12 1   
     7     3    11 1   
     8     4    11 2   
     9     4    12 1   
    10     4    13 1   
    11     5     7 1   
    12     5    10 1   
    13     5    15 2   
    14     6     7 ar  
    15     6    14 1   
    16     6    19 ar  
    17     7    16 ar  
    18     8     9 ar  
    19     8    26 1   
    20     9    10 ar  
    21     9    27 1   
    22    13    28 1   
    23    13    29 1   
    24    14    15 1   
    25    14    20 1   
    26    16    17 ar  
    27    16    23 1   
    28    17    18 ar  
    29    18    19 ar  
    30    18    24 1   
    31    20    21 1   
    32    20    22 1   
    33    20    30 1   
    34    21    31 1   
    35    21    32 1   
    36    21    33 1   
    37    22    34 1   
    38    22    35 1   
    39    22    36 1   
    40    23    37 1   
    41    23    38 1   
    42    23    39 1   
    43    24    40 1   
    44    24    41 1   
@<TRIPOS>SUBSTRUCTURE
     1 FCZ         1 TEMP              0 ****  ****    0 ROOT
