@<TRIPOS>MOLECULE
FD1
   63    66     1     0     0
SMALL
abcg2


@<TRIPOS>ATOM
      1 C65         -1.7890    16.3790    17.9840 ca         1 FD1      -0.080300
      2 C66         -2.2920    15.7800    16.8320 ca         1 FD1      -0.083000
      3 C64         -0.7890    15.7220    18.7040 ca         1 FD1      -0.063000
      4 C63         -0.3080    14.4910    18.2760 ca         1 FD1      -0.120000
      5 C62         -0.8170    13.8990    17.1250 ca         1 FD1      -0.094000
      6 C61         -1.8120    14.5460    16.3900 ca         1 FD1      -0.218900
      7 C25         -2.3530    13.9500    15.1330 ce         1 FD1       0.669800
      8 N43         -2.4220    12.5860    15.1130 nv         1 FD1      -1.052200
      9 N54         -2.7020    14.6310    14.0970 n2         1 FD1      -0.868100
     10 C34         -2.2890    17.7260    18.4350 c3         1 FD1      -0.016100
     11 C31         -1.5470    18.9170    17.7870 c3         1 FD1       0.132500
     12 C35         -0.0260    18.8450    18.0230 c          1 FD1       0.568100
     13 O36          0.6730    18.3640    17.1240 o          1 FD1      -0.669100
     14 N81          0.4700    19.2920    19.1870 n          1 FD1      -0.340800
     15 C71         -0.3220    19.7980    20.3110 c6         1 FD1      -0.044300
     16 C72          0.1840    21.1880    20.7170 c6         1 FD1      -0.064400
     17 C74          2.4460    20.6310    19.7910 c6         1 FD1      -0.091400
     18 C75          1.9190    19.2490    19.4210 c6         1 FD1       0.093000
     19 C40          1.6860    21.1990    20.9880 c6         1 FD1      -0.068400
     20 C91         -0.3910    18.7920    21.5080 c          1 FD1       0.709000
     21 O92         -0.9570    19.2360    22.5350 o          1 FD1      -0.715500
     22 O93          0.0670    17.6390    21.3410 o          1 FD1      -0.715500
     23 N29         -1.8020    18.9410    16.3430 n7         1 FD1      -0.842300
     24 S12         -1.9900    20.3980    15.6080 sy         1 FD1       1.164600
     25 O32         -2.1260    20.1080    14.1990 o          1 FD1      -0.556500
     26 O33         -3.0510    21.0910    16.3000 o          1 FD1      -0.556500
     27 C2          -0.4870    21.3010    15.8560 ca         1 FD1      -0.308500
     28 C3           0.6440    20.9590    15.0790 ca         1 FD1      -0.016000
     29 C4           1.8390    21.5740    15.3300 ca         1 FD1      -0.112000
     30 C9           0.8060    22.8970    17.1180 ca         1 FD1      -0.063000
     31 C10          1.9600    22.5450    16.3560 ca         1 FD1       0.006000
     32 C1          -0.4190    22.2450    16.8470 ca         1 FD1       0.024000
     33 C5           3.1940    23.1690    16.6580 ca         1 FD1      -0.114000
     34 C6           3.2800    24.0940    17.6680 ca         1 FD1      -0.094000
     35 C7           2.1350    24.4470    18.4160 ca         1 FD1      -0.122000
     36 C8           0.9240    23.8640    18.1440 ca         1 FD1      -0.073000
     37 H661        -3.0800    16.2750    16.2790 ha         1 FD1       0.116000
     38 H641        -0.3940    16.1880    19.6000 ha         1 FD1       0.178000
     39 H631         0.4690    13.9900    18.8390 ha         1 FD1       0.113000
     40 H621        -0.4280    12.9460    16.7920 ha         1 FD1       0.106000
     41 H431        -2.4870    12.0880    15.9850 hn         1 FD1       0.468000
     42 H432        -2.8920    12.1630    14.3270 hn         1 FD1       0.468000
     43 H541        -2.5080    15.6170    14.2430 hn         1 FD1       0.394400
     44 H341        -2.1870    17.8070    19.5170 hc         1 FD1       0.073700
     45 H342        -3.3450    17.8410    18.1890 hc         1 FD1       0.073700
     46 H311        -1.9670    19.8290    18.2010 h1         1 FD1       0.080700
     47 H711        -1.3540    19.9090    19.9910 h1         1 FD1       0.040700
     48 H721        -0.3760    21.5100    21.5930 hc         1 FD1       0.037700
     49 H722        -0.0410    21.8820    19.9050 hc         1 FD1       0.037700
     50 H741         2.3360    21.2990    18.9340 hc         1 FD1       0.032200
     51 H742         3.5140    20.5530    20.0090 hc         1 FD1       0.032200
     52 H751         2.3910    18.8750    18.5190 h1         1 FD1       0.069700
     53 H752         2.1070    18.5430    20.2320 h1         1 FD1       0.069700
     54 H401         1.9040    20.5970    21.8770 hc         1 FD1       0.038200
     55 H402         2.0180    22.2180    21.2030 hc         1 FD1       0.038200
     56 H291        -1.1240    18.3700    15.8400 hn         1 FD1       0.502000
     57 H31          0.5590    20.2090    14.3060 ha         1 FD1       0.131000
     58 H41          2.7160    21.3160    14.7480 ha         1 FD1       0.113000
     59 H11         -1.2940    22.4910    17.4340 ha         1 FD1       0.137000
     60 H51          4.0700    22.8970    16.0820 ha         1 FD1       0.111000
     61 H61          4.2300    24.5590    17.8960 ha         1 FD1       0.107000
     62 H71          2.2200    25.1780    19.2090 ha         1 FD1       0.111000
     63 H81          0.0440    24.1270    18.7170 ha         1 FD1       0.119000
@<TRIPOS>BOND
     1     1     2 ar  
     2     1     3 ar  
     3     1    10 1   
     4     2     6 ar  
     5     2    37 1   
     6     3     4 ar  
     7     3    38 1   
     8     4     5 ar  
     9     4    39 1   
    10     5     6 ar  
    11     5    40 1   
    12     6     7 1   
    13     7     8 1   
    14     7     9 2   
    15     8    41 1   
    16     8    42 1   
    17     9    43 1   
    18    10    11 1   
    19    10    44 1   
    20    10    45 1   
    21    11    12 1   
    22    11    23 1   
    23    11    46 1   
    24    12    13 2   
    25    12    14 1   
    26    14    15 1   
    27    14    18 1   
    28    15    16 1   
    29    15    20 1   
    30    15    47 1   
    31    16    19 1   
    32    16    48 1   
    33    16    49 1   
    34    17    18 1   
    35    17    19 1   
    36    17    50 1   
    37    17    51 1   
    38    18    52 1   
    39    18    53 1   
    40    19    54 1   
    41    19    55 1   
    42    20    21 1   
    43    20    22 1   
    44    23    24 1   
    45    23    56 1   
    46    24    25 2   
    47    24    26 2   
    48    24    27 1   
    49    27    28 ar  
    50    27    32 ar  
    51    28    29 ar  
    52    28    57 1   
    53    29    31 ar  
    54    29    58 1   
    55    30    31 ar  
    56    30    32 ar  
    57    30    36 ar  
    58    31    33 ar  
    59    32    59 1   
    60    33    34 ar  
    61    33    60 1   
    62    34    35 ar  
    63    34    61 1   
    64    35    36 ar  
    65    35    62 1   
    66    36    63 1   
@<TRIPOS>SUBSTRUCTURE
     1 FD1         1 TEMP              0 ****  ****    0 ROOT
