@<TRIPOS>MOLECULE
FD1
   63    66     1     0     0
SMALL
No Charge or Current Charge


@<TRIPOS>ATOM
      1 C65         -1.7980    16.3910    17.8750 ca         1 FD1      -0.080300
      2 C66         -2.6700    15.8360    16.9170 ca         1 FD1      -0.083000
      3 C64         -0.8220    15.5750    18.4770 ca         1 FD1      -0.063000
      4 C63         -0.7100    14.2250    18.1110 ca         1 FD1      -0.120000
      5 C62         -1.5780    13.6770    17.1520 ca         1 FD1      -0.094000
      6 C61         -2.5840    14.4700    16.5520 ca         1 FD1      -0.218900
      7 C25         -3.4880    13.8990    15.5070 ce         1 FD1       0.669800
      8 N43         -3.7930    12.5940    15.5830 nv         1 FD1      -1.052200
      9 N54         -4.1110    14.6020    14.6580 n2         1 FD1      -0.868100
     10 C34         -1.9250    17.8620    18.2730 c3         1 FD1      -0.016100
     11 C31         -1.0270    18.8300    17.4570 c3         1 FD1       0.132500
     12 C35          0.5020    18.6130    17.7730 c          1 FD1       0.568100
     13 O36          1.1510    17.8060    17.1100 o          1 FD1      -0.669100
     14 N81          1.1560    19.4410    18.7310 n          1 FD1      -0.340800
     15 C71          0.4230    19.9970    19.9380 c6         1 FD1      -0.044300
     16 C72          1.1510    21.2210    20.5580 c6         1 FD1      -0.064400
     17 C74          3.3450    20.4730    19.6120 c6         1 FD1      -0.091400
     18 C75          2.6360    19.2890    18.9100 c6         1 FD1       0.093000
     19 C40          2.6170    20.9040    20.8940 c6         1 FD1      -0.068400
     20 C91          0.0950    18.9600    21.0670 c          1 FD1       0.709000
     21 O92         -0.9970    19.0850    21.6050 o          1 FD1      -0.715500
     22 O93          0.6610    17.8770    21.0310 o          1 FD1      -0.715500
     23 N29         -1.3800    18.6750    16.0090 n7         1 FD1      -0.842300
     24 S12         -0.8590    19.7490    14.8420 sy         1 FD1       1.164600
     25 O32          0.0510    18.9630    14.0090 o          1 FD1      -0.556500
     26 O33         -2.0780    20.3580    14.3060 o          1 FD1      -0.556500
     27 C2           0.0860    20.9780    15.7560 ca         1 FD1      -0.308500
     28 C3           1.4960    20.9500    15.7370 ca         1 FD1      -0.016000
     29 C4           2.2270    21.9300    16.4280 ca         1 FD1      -0.112000
     30 C9           0.1490    22.9690    17.1670 ca         1 FD1      -0.063000
     31 C10          1.5600    22.9360    17.1490 ca         1 FD1       0.006000
     32 C1          -0.5850    21.9990    16.4590 ca         1 FD1       0.024000
     33 C5           2.2940    23.9060    17.8570 ca         1 FD1      -0.114000
     34 C6           1.6250    24.9040    18.5850 ca         1 FD1      -0.094000
     35 C7           0.2200    24.9370    18.6040 ca         1 FD1      -0.122000
     36 C8          -0.5180    23.9740    17.8950 ca         1 FD1      -0.073000
     37 H661        -3.4280    16.4750    16.4690 ha         1 FD1       0.116000
     38 H641        -0.1430    15.9870    19.2220 ha         1 FD1       0.178000
     39 H631         0.0550    13.6020    18.5680 ha         1 FD1       0.113000
     40 H621        -1.4550    12.6320    16.8730 ha         1 FD1       0.106000
     41 H431        -3.6580    12.1800    16.4970 hn         1 FD1       0.468000
     42 H432        -4.6470    12.3430    15.1020 hn         1 FD1       0.468000
     43 H541        -3.7470    15.5600    14.7260 hn         1 FD1       0.394400
     44 H341        -1.7140    17.9750    19.3380 hc         1 FD1       0.073700
     45 H342        -2.9670    18.1850    18.1550 hc         1 FD1       0.073700
     46 H311        -1.2900    19.8430    17.7810 h1         1 FD1       0.080700
     47 H711        -0.5500    20.3790    19.6070 h1         1 FD1       0.040700
     48 H721         0.6230    21.5540    21.4620 hc         1 FD1       0.037700
     49 H722         1.1100    22.0640    19.8560 hc         1 FD1       0.037700
     50 H741         3.3990    21.3260    18.9230 hc         1 FD1       0.032200
     51 H742         4.3830    20.2000    19.8420 hc         1 FD1       0.032200
     52 H751         3.1120    19.1430    17.9300 h1         1 FD1       0.069700
     53 H752         2.8210    18.3730    19.4900 h1         1 FD1       0.069700
     54 H401         2.6750    20.1080    21.6500 hc         1 FD1       0.038200
     55 H402         3.1050    21.7890    21.3240 hc         1 FD1       0.038200
     56 H291        -0.9130    17.8350    15.6670 hn         1 FD1       0.502000
     57 H31          2.0310    20.1750    15.1920 ha         1 FD1       0.131000
     58 H41          3.3140    21.9000    16.4080 ha         1 FD1       0.113000
     59 H11         -1.6740    22.0340    16.4660 ha         1 FD1       0.137000
     60 H51          3.3820    23.8850    17.8480 ha         1 FD1       0.111000
     61 H61          2.1940    25.6510    19.1340 ha         1 FD1       0.107000
     62 H71         -0.2970    25.7110    19.1680 ha         1 FD1       0.111000
     63 H81         -1.6050    24.0080    17.9160 ha         1 FD1       0.119000
@<TRIPOS>BOND
     1     1     2 ar  
     2     1     3 ar  
     3     1    10 1   
     4     2     6 ar  
     5     2    37 1   
     6     3     4 ar  
     7     3    38 1   
     8     4     5 ar  
     9     4    39 1   
    10     5     6 ar  
    11     5    40 1   
    12     6     7 1   
    13     7     8 1   
    14     7     9 2   
    15     8    41 1   
    16     8    42 1   
    17     9    43 1   
    18    10    11 1   
    19    10    44 1   
    20    10    45 1   
    21    11    12 1   
    22    11    23 1   
    23    11    46 1   
    24    12    13 2   
    25    12    14 1   
    26    14    15 1   
    27    14    18 1   
    28    15    16 1   
    29    15    20 1   
    30    15    47 1   
    31    16    19 1   
    32    16    48 1   
    33    16    49 1   
    34    17    18 1   
    35    17    19 1   
    36    17    50 1   
    37    17    51 1   
    38    18    52 1   
    39    18    53 1   
    40    19    54 1   
    41    19    55 1   
    42    20    21 1   
    43    20    22 1   
    44    23    24 1   
    45    23    56 1   
    46    24    25 2   
    47    24    26 2   
    48    24    27 1   
    49    27    28 ar  
    50    27    32 ar  
    51    28    29 ar  
    52    28    57 1   
    53    29    31 ar  
    54    29    58 1   
    55    30    31 ar  
    56    30    32 ar  
    57    30    36 ar  
    58    31    33 ar  
    59    32    59 1   
    60    33    34 ar  
    61    33    60 1   
    62    34    35 ar  
    63    34    61 1   
    64    35    36 ar  
    65    35    62 1   
    66    36    63 1   
@<TRIPOS>SUBSTRUCTURE
     1 FD1         1 TEMP              0 ****  ****    0 ROOT
