@<TRIPOS>MOLECULE
FD2
   67    70     1     0     0
SMALL
No Charge or Current Charge


@<TRIPOS>ATOM
      1 C65          0.9080     0.8030    -3.4980 ca         1 FD2      -0.093300
      2 C66          1.5930    -0.4070    -3.2710 ca         1 FD2      -0.062000
      3 C64          0.2930     1.0270    -4.7430 ca         1 FD2      -0.068000
      4 C63          0.3590     0.0480    -5.7460 ca         1 FD2      -0.116000
      5 C62          1.0440    -1.1570    -5.5170 ca         1 FD2      -0.086000
      6 C61          1.6880    -1.3960    -4.2780 ca         1 FD2      -0.142900
      7 C25          2.3980    -2.6900    -4.0020 ce         1 FD2       0.665800
      8 N43          2.8370    -3.4160    -5.0520 nv         1 FD2      -1.077200
      9 N54          2.6950    -3.0880    -2.8340 n2         1 FD2      -0.834100
     10 C34          0.8270     1.8550    -2.3970 c3         1 FD2      -0.016100
     11 C31         -0.3410     1.6000    -1.4110 c3         1 FD2       0.134500
     12 C35         -0.1390     2.4460    -0.1020 c          1 FD2       0.577100
     13 O36         -0.6130     3.5760    -0.0250 o          1 FD2      -0.614100
     14 N81          0.5180     1.8650     1.0160 n          1 FD2      -0.398800
     15 C71          1.5550     0.8000     0.8390 c6         1 FD2       0.093000
     16 C72          1.9120     0.0270     2.1290 c6         1 FD2      -0.087900
     17 C74          1.0270     1.8570     3.5270 c6         1 FD2      -0.087900
     18 C75          0.6480     2.6700     2.2680 c6         1 FD2       0.093000
     19 C40          2.2800     0.9780     3.2950 c6         1 FD2      -0.117700
     20 C48          2.6570     0.1880     4.5670 c          1 FD2       0.596100
     21 O49          3.7520     0.3000     5.1020 o          1 FD2      -0.488000
     22 O55          1.6590    -0.6290     5.0340 os         1 FD2      -0.441100
     23 C99          1.9140    -1.4080     6.2160 c3         1 FD2       0.151900
     24 N29         -1.6440     1.8590    -2.1110 n7         1 FD2      -0.847300
     25 S12         -3.1020     1.3680    -1.4520 sy         1 FD2       1.148600
     26 O32         -3.8040     2.6160    -1.1510 o          1 FD2      -0.530000
     27 O33         -3.6380     0.3750    -2.3860 o          1 FD2      -0.530000
     28 C2          -2.6330     0.5680     0.0930 ca         1 FD2      -0.308500
     29 C3          -2.7550     1.2560     1.3200 ca         1 FD2      -0.025000
     30 C4          -2.3750     0.6300     2.5180 ca         1 FD2      -0.108000
     31 C9          -1.7520    -1.3770     1.2790 ca         1 FD2      -0.073000
     32 C10         -1.8650    -0.6800     2.5030 ca         1 FD2       0.002000
     33 C1          -2.1520    -0.7580     0.0800 ca         1 FD2       0.017000
     34 C5          -1.4630    -1.2990     3.7020 ca         1 FD2      -0.114000
     35 C6          -0.9420    -2.6040     3.6810 ca         1 FD2      -0.090000
     36 C7          -0.8270    -3.2960     2.4640 ca         1 FD2      -0.119000
     37 C8          -1.2330    -2.6860     1.2650 ca         1 FD2      -0.082000
     38 H661         2.0640    -0.5750    -2.3040 ha         1 FD2       0.126000
     39 H641        -0.2460     1.9530    -4.9280 ha         1 FD2       0.119000
     40 H631        -0.1300     0.2200    -6.7020 ha         1 FD2       0.117000
     41 H621         1.0580    -1.9050    -6.3060 ha         1 FD2       0.117000
     42 H431         3.6460    -3.9980    -4.8750 hn         1 FD2       0.461000
     43 H432         2.8450    -2.9290    -5.9400 hn         1 FD2       0.461000
     44 H541         2.9750    -4.0720    -2.8990 hn         1 FD2       0.370400
     45 H341         0.7280     2.8600    -2.8270 hc         1 FD2       0.058200
     46 H342         1.7730     1.8670    -1.8420 hc         1 FD2       0.058200
     47 H311        -0.2880     0.5420    -1.1350 h1         1 FD2       0.092700
     48 H711         2.4690     1.2710     0.4480 h1         1 FD2       0.060200
     49 H712         1.2350     0.0580     0.0980 h1         1 FD2       0.060200
     50 H721         2.7500    -0.6530     1.9230 hc         1 FD2       0.067450
     51 H722         1.0650    -0.6130     2.4100 hc         1 FD2       0.067450
     52 H741         0.1730     1.2330     3.8230 hc         1 FD2       0.067450
     53 H742         1.2030     2.5480     4.3630 hc         1 FD2       0.067450
     54 H751         1.4100     3.4450     2.1020 h1         1 FD2       0.060200
     55 H752        -0.3000     3.1890     2.4680 h1         1 FD2       0.060200
     56 H401         3.1400     1.6040     3.0200 hc         1 FD2       0.073700
     57 H991         1.0330    -2.0100     6.4740 h1         1 FD2       0.048367
     58 H992         2.7580    -2.0920     6.0600 h1         1 FD2       0.048367
     59 H993         2.1440    -0.7590     7.0710 h1         1 FD2       0.048367
     60 H291        -1.8050     2.8670    -2.1390 hn         1 FD2       0.500000
     61 H31         -3.1320     2.2770     1.3510 ha         1 FD2       0.134000
     62 H41         -2.4670     1.1710     3.4570 ha         1 FD2       0.119000
     63 H11         -2.0660    -1.2980    -0.8620 ha         1 FD2       0.140000
     64 H51         -1.5440    -0.7680     4.6470 ha         1 FD2       0.118000
     65 H61         -0.6270    -3.0780     4.6080 ha         1 FD2       0.114000
     66 H71         -0.4240    -4.3060     2.4500 ha         1 FD2       0.121000
     67 H81         -1.1400    -3.2300     0.3270 ha         1 FD2       0.126000
@<TRIPOS>BOND
     1     1     2 ar  
     2     1     3 ar  
     3     1    10 1   
     4     2     6 ar  
     5     2    38 1   
     6     3     4 ar  
     7     3    39 1   
     8     4     5 ar  
     9     4    40 1   
    10     5     6 ar  
    11     5    41 1   
    12     6     7 1   
    13     7     8 1   
    14     7     9 2   
    15     8    42 1   
    16     8    43 1   
    17     9    44 1   
    18    10    11 1   
    19    10    45 1   
    20    10    46 1   
    21    11    12 1   
    22    11    24 1   
    23    11    47 1   
    24    12    13 2   
    25    12    14 1   
    26    14    15 1   
    27    14    18 1   
    28    15    16 1   
    29    15    48 1   
    30    15    49 1   
    31    16    19 1   
    32    16    50 1   
    33    16    51 1   
    34    17    18 1   
    35    17    19 1   
    36    17    52 1   
    37    17    53 1   
    38    18    54 1   
    39    18    55 1   
    40    19    20 1   
    41    19    56 1   
    42    20    21 2   
    43    20    22 1   
    44    22    23 1   
    45    23    57 1   
    46    23    58 1   
    47    23    59 1   
    48    24    25 1   
    49    24    60 1   
    50    25    26 2   
    51    25    27 2   
    52    25    28 1   
    53    28    29 ar  
    54    28    33 ar  
    55    29    30 ar  
    56    29    61 1   
    57    30    32 ar  
    58    30    62 1   
    59    31    32 ar  
    60    31    33 ar  
    61    31    37 ar  
    62    32    34 ar  
    63    33    63 1   
    64    34    35 ar  
    65    34    64 1   
    66    35    36 ar  
    67    35    65 1   
    68    36    37 ar  
    69    36    66 1   
    70    37    67 1   
@<TRIPOS>SUBSTRUCTURE
     1 FD2         1 TEMP              0 ****  ****    0 ROOT
