@<TRIPOS>MOLECULE
FD2
   67    70     1     0     0
SMALL
bcc


@<TRIPOS>ATOM
      1 C65          0.9510     0.9580    -3.6660 ca         1 FD2      -0.093300
      2 C66          1.8960    -0.0530    -3.7740 ca         1 FD2      -0.080000
      3 C64          0.0830     1.1820    -4.7310 ca         1 FD2      -0.086000
      4 C63          0.1650     0.4060    -5.8770 ca         1 FD2      -0.134000
      5 C62          1.1160    -0.6000    -5.9760 ca         1 FD2      -0.104000
      6 C61          1.9960    -0.8360    -4.9220 ca         1 FD2      -0.142900
      7 C25          3.0310    -1.9050    -4.9830 ce         1 FD2       0.665800
      8 N43          3.4010    -2.2870    -6.2410 nv         1 FD2      -0.966800
      9 N54          3.4550    -2.4100    -3.8880 n2         1 FD2      -0.834100
     10 C34          0.8570     1.7640    -2.4040 c3         1 FD2      -0.016100
     11 C31         -0.1000     1.1190    -1.3850 c3         1 FD2       0.134500
     12 C35         -0.0250     1.8780    -0.0520 c          1 FD2       0.644100
     13 O36         -0.8450     2.7610     0.1630 o          1 FD2      -0.614100
     14 N81          0.9660     1.5720     0.8010 n          1 FD2      -0.465800
     15 C71          2.0120     0.5840     0.5920 c6         1 FD2       0.093000
     16 C72          2.0020    -0.4690     1.6890 c6         1 FD2      -0.087900
     17 C74          1.0220     1.2500     3.2310 c6         1 FD2      -0.087900
     18 C75          1.0760     2.2500     2.0830 c6         1 FD2       0.093000
     19 C40          2.1040     0.1800     3.0660 c6         1 FD2      -0.117700
     20 C48          2.0920    -0.8620     4.1620 c          1 FD2       0.645100
     21 O49          2.2390    -2.0450     3.9850 o          1 FD2      -0.537000
     22 O55          1.9380    -0.3210     5.3620 os         1 FD2      -0.417900
     23 C99          1.9370    -1.1980     6.4870 c3         1 FD2       0.128700
     24 N29         -1.4520     1.1680    -1.9080 n7         1 FD2      -0.792100
     25 S12         -2.4960    -0.0540    -1.5450 sy         1 FD2       1.290200
     26 O32         -3.7880     0.3670    -2.0580 o          1 FD2      -0.600800
     27 O33         -1.8920    -1.2900    -2.0120 o          1 FD2      -0.600800
     28 C2          -2.5870    -0.1230     0.2210 ca         1 FD2      -0.308500
     29 C3          -3.3450     0.8590     0.8960 ca         1 FD2      -0.043000
     30 C4          -3.3710     0.8580     2.2590 ca         1 FD2      -0.126000
     31 C9          -1.9010    -1.0940     2.3110 ca         1 FD2      -0.073000
     32 C10         -2.6490    -0.1070     3.0030 ca         1 FD2       0.002000
     33 C1          -1.8830    -1.0790     0.8980 ca         1 FD2      -0.001000
     34 C5          -2.6450    -0.1110     4.4150 ca         1 FD2      -0.132000
     35 C6          -1.9290    -1.0530     5.1050 ca         1 FD2      -0.108000
     36 C7          -1.1940    -2.0380     4.4160 ca         1 FD2      -0.137000
     37 C8          -1.1790    -2.0590     3.0480 ca         1 FD2      -0.100000
     38 H661         2.5870    -0.2380    -2.9600 ha         1 FD2       0.144000
     39 H641        -0.6580     1.9680    -4.6640 ha         1 FD2       0.137000
     40 H631        -0.5160     0.5830    -6.6990 ha         1 FD2       0.135000
     41 H621         1.1510    -1.2050    -6.8730 ha         1 FD2       0.135000
     42 H431         4.2000    -2.8950    -6.3260 hn         1 FD2       0.405800
     43 H432         3.3230    -1.6180    -6.9890 hn         1 FD2       0.405800
     44 H541         4.1770    -3.1050    -4.0570 hn         1 FD2       0.370400
     45 H341         0.5060     2.7780    -2.6140 hc         1 FD2       0.058200
     46 H342         1.8460     1.8640    -1.9520 hc         1 FD2       0.058200
     47 H311         0.1740     0.0700    -1.2620 h1         1 FD2       0.092700
     48 H711         2.9750     1.1050     0.5850 h1         1 FD2       0.060200
     49 H712         1.9180     0.1010    -0.3770 h1         1 FD2       0.060200
     50 H721         2.8360    -1.1520     1.5210 hc         1 FD2       0.067450
     51 H722         1.0850    -1.0580     1.6200 hc         1 FD2       0.067450
     52 H741         0.0330     0.7830     3.2520 hc         1 FD2       0.067450
     53 H742         1.1430     1.7950     4.1660 hc         1 FD2       0.067450
     54 H751         2.0230     2.8010     2.1080 h1         1 FD2       0.060200
     55 H752         0.2740     2.9750     2.1780 h1         1 FD2       0.060200
     56 H401         3.0820     0.6790     3.1380 hc         1 FD2       0.073700
     57 H991         1.8260    -0.5650     7.3620 h1         1 FD2       0.048367
     58 H992         1.1030    -1.8990     6.4410 h1         1 FD2       0.048367
     59 H993         2.8700    -1.7570     6.5590 h1         1 FD2       0.048367
     60 H291        -1.8810     2.0820    -1.7900 hn         1 FD2       0.444800
     61 H31         -3.8970     1.6060     0.3430 ha         1 FD2       0.152000
     62 H41         -3.9440     1.6090     2.7890 ha         1 FD2       0.137000
     63 H11         -1.3110    -1.8350     0.3740 ha         1 FD2       0.158000
     64 H51         -3.2110     0.6450     4.9460 ha         1 FD2       0.136000
     65 H61         -1.9290    -1.0460     6.1870 ha         1 FD2       0.132000
     66 H71         -0.6400    -2.7810     4.9730 ha         1 FD2       0.139000
     67 H81         -0.6140    -2.8150     2.5170 ha         1 FD2       0.144000
@<TRIPOS>BOND
     1     1     2 ar  
     2     1     3 ar  
     3     1    10 1   
     4     2     6 ar  
     5     2    38 1   
     6     3     4 ar  
     7     3    39 1   
     8     4     5 ar  
     9     4    40 1   
    10     5     6 ar  
    11     5    41 1   
    12     6     7 1   
    13     7     8 1   
    14     7     9 2   
    15     8    42 1   
    16     8    43 1   
    17     9    44 1   
    18    10    11 1   
    19    10    45 1   
    20    10    46 1   
    21    11    12 1   
    22    11    24 1   
    23    11    47 1   
    24    12    13 2   
    25    12    14 1   
    26    14    15 1   
    27    14    18 1   
    28    15    16 1   
    29    15    48 1   
    30    15    49 1   
    31    16    19 1   
    32    16    50 1   
    33    16    51 1   
    34    17    18 1   
    35    17    19 1   
    36    17    52 1   
    37    17    53 1   
    38    18    54 1   
    39    18    55 1   
    40    19    20 1   
    41    19    56 1   
    42    20    21 2   
    43    20    22 1   
    44    22    23 1   
    45    23    57 1   
    46    23    58 1   
    47    23    59 1   
    48    24    25 1   
    49    24    60 1   
    50    25    26 2   
    51    25    27 2   
    52    25    28 1   
    53    28    29 ar  
    54    28    33 ar  
    55    29    30 ar  
    56    29    61 1   
    57    30    32 ar  
    58    30    62 1   
    59    31    32 ar  
    60    31    33 ar  
    61    31    37 ar  
    62    32    34 ar  
    63    33    63 1   
    64    34    35 ar  
    65    34    64 1   
    66    35    36 ar  
    67    35    65 1   
    68    36    37 ar  
    69    36    66 1   
    70    37    67 1   
@<TRIPOS>SUBSTRUCTURE
     1 FD2         1 TEMP              0 ****  ****    0 ROOT
