@<TRIPOS>MOLECULE
FD3
   60    63     1     0     0
SMALL
No Charge or Current Charge


@<TRIPOS>ATOM
      1 C65         -0.4020     0.8470     2.9680 ca         1 FD3      -0.080300
      2 C66         -0.7480    -0.5140     3.0850 ca         1 FD3      -0.090000
      3 C64          0.5050     1.4130     3.8820 ca         1 FD3      -0.071000
      4 C63          1.0560     0.6270     4.9050 ca         1 FD3      -0.112000
      5 C62          0.7100    -0.7300     5.0190 ca         1 FD3      -0.077000
      6 C61         -0.1850    -1.3250     4.0990 ca         1 FD3      -0.192900
      7 C25         -0.5860    -2.7590     4.2450 ce         1 FD3       0.666800
      8 N43          0.3140    -3.6190     4.7500 nv         1 FD3      -1.033200
      9 N54         -1.6700    -3.2320     3.7890 n2         1 FD3      -0.852100
     10 C34         -1.0060     1.6990     1.8550 c3         1 FD3      -0.019100
     11 C31         -0.1900     1.6340     0.5390 c3         1 FD3       0.132500
     12 C35         -1.0400     2.2070    -0.6540 c          1 FD3       0.572100
     13 O36         -0.8500     3.3510    -1.0560 o          1 FD3      -0.614100
     14 N81         -2.0740     1.4180    -1.2200 n          1 FD3      -0.395800
     15 C71         -2.0920    -0.0760    -1.0720 c6         1 FD3       0.092500
     16 C72         -3.4080    -0.7760    -1.5130 c6         1 FD3       0.138300
     17 C74         -4.1130     1.1700    -2.7820 c6         1 FD3       0.138300
     18 C75         -2.8190     1.9440    -2.4110 c6         1 FD3       0.092500
     19 N40         -3.8940    -0.2920    -2.8230 n7         1 FD3      -0.861400
     20 N29          1.1290     2.3250     0.7370 n7         1 FD3      -0.841300
     21 S12          2.3790     2.1460    -0.3620 sy         1 FD3       1.146600
     22 O32          2.4340     3.4230    -1.0740 o          1 FD3      -0.532000
     23 O33          3.5100     1.6320     0.4140 o          1 FD3      -0.532000
     24 C2           1.7780     0.8670    -1.4820 ca         1 FD3      -0.307500
     25 C3           1.1950     1.2130    -2.7200 ca         1 FD3      -0.027000
     26 C4           0.7270     0.2080    -3.5820 ca         1 FD3      -0.104000
     27 C9           1.4310    -1.4970    -1.9850 ca         1 FD3      -0.067000
     28 C10          0.8390    -1.1460    -3.2190 ca         1 FD3       0.003000
     29 C1           1.9070    -0.4910    -1.1240 ca         1 FD3       0.014000
     30 C5           0.3560    -2.1530    -4.0760 ca         1 FD3      -0.112000
     31 C6           0.4630    -3.5050    -3.7060 ca         1 FD3      -0.088000
     32 C7           1.0530    -3.8540    -2.4800 ca         1 FD3      -0.110000
     33 C8           1.5370    -2.8530    -1.6200 ca         1 FD3      -0.088000
     34 H661        -1.4460    -0.9430     2.3700 ha         1 FD3       0.107000
     35 H641         0.7830     2.4610     3.7980 ha         1 FD3       0.118000
     36 H631         1.7490     1.0720     5.6150 ha         1 FD3       0.119000
     37 H621         1.1350    -1.3120     5.8340 ha         1 FD3       0.125000
     38 H431         0.1190    -4.5850     4.5210 hn         1 FD3       0.471000
     39 H432         1.2820    -3.3320     4.6720 hn         1 FD3       0.471000
     40 H541        -2.2510    -2.4400     3.4860 hn         1 FD3       0.384400
     41 H341        -2.0320     1.3640     1.6610 hc         1 FD3       0.059700
     42 H342        -1.0960     2.7450     2.1750 hc         1 FD3       0.059700
     43 H311        -0.0150     0.5700     0.3420 h1         1 FD3       0.085700
     44 H711        -1.2680    -0.4910    -1.6660 h1         1 FD3       0.064950
     45 H712        -1.9100    -0.3580    -0.0270 h1         1 FD3       0.064950
     46 H721        -3.2470    -1.8630    -1.5560 h1         1 FD3       0.041950
     47 H722        -4.1810    -0.5890    -0.7520 h1         1 FD3       0.041950
     48 H741        -4.4790     1.5180    -3.7590 h1         1 FD3       0.041950
     49 H742        -4.8910     1.3990    -2.0390 h1         1 FD3       0.041950
     50 H751        -3.0850     2.9970    -2.2440 h1         1 FD3       0.064950
     51 H752        -2.1390     1.9180    -3.2750 h1         1 FD3       0.064950
     52 H401        -4.7860    -0.7570    -3.0420 hn         1 FD3       0.419000
     53 H291         0.9820     3.3320     0.6530 hn         1 FD3       0.500000
     54 H31          1.0950     2.2560    -3.0150 ha         1 FD3       0.136000
     55 H41          0.2710     0.4850    -4.5300 ha         1 FD3       0.120000
     56 H11          2.3610    -0.7640    -0.1720 ha         1 FD3       0.134000
     57 H51         -0.1040    -1.8900    -5.0260 ha         1 FD3       0.119000
     58 H61          0.0880    -4.2810    -4.3700 ha         1 FD3       0.117000
     59 H71          1.1350    -4.9010    -2.1950 ha         1 FD3       0.119000
     60 H81          1.9900    -3.1330    -0.6710 ha         1 FD3       0.117000
@<TRIPOS>BOND
     1     1     2 ar  
     2     1     3 ar  
     3     1    10 1   
     4     2     6 ar  
     5     2    34 1   
     6     3     4 ar  
     7     3    35 1   
     8     4     5 ar  
     9     4    36 1   
    10     5     6 ar  
    11     5    37 1   
    12     6     7 1   
    13     7     8 1   
    14     7     9 2   
    15     8    38 1   
    16     8    39 1   
    17     9    40 1   
    18    10    11 1   
    19    10    41 1   
    20    10    42 1   
    21    11    12 1   
    22    11    20 1   
    23    11    43 1   
    24    12    13 2   
    25    12    14 1   
    26    14    15 1   
    27    14    18 1   
    28    15    16 1   
    29    15    44 1   
    30    15    45 1   
    31    16    19 1   
    32    16    46 1   
    33    16    47 1   
    34    17    18 1   
    35    17    19 1   
    36    17    48 1   
    37    17    49 1   
    38    18    50 1   
    39    18    51 1   
    40    19    52 1   
    41    20    21 1   
    42    20    53 1   
    43    21    22 2   
    44    21    23 2   
    45    21    24 1   
    46    24    25 ar  
    47    24    29 ar  
    48    25    26 ar  
    49    25    54 1   
    50    26    28 ar  
    51    26    55 1   
    52    27    28 ar  
    53    27    29 ar  
    54    27    33 ar  
    55    28    30 ar  
    56    29    56 1   
    57    30    31 ar  
    58    30    57 1   
    59    31    32 ar  
    60    31    58 1   
    61    32    33 ar  
    62    32    59 1   
    63    33    60 1   
@<TRIPOS>SUBSTRUCTURE
     1 FD3         1 TEMP              0 ****  ****    0 ROOT
