@<TRIPOS>MOLECULE
FD3
   60    63     1     0     0
SMALL
bcc


@<TRIPOS>ATOM
      1 C65         -0.6620     0.9770     3.1210 ca         1 FD3      -0.080300
      2 C66         -0.8000    -0.3150     3.6150 ca         1 FD3      -0.108000
      3 C64          0.0250     1.9150     3.8830 ca         1 FD3      -0.089000
      4 C63          0.5650     1.5640     5.1120 ca         1 FD3      -0.130000
      5 C62          0.4340     0.2690     5.5900 ca         1 FD3      -0.095000
      6 C61         -0.2560    -0.6830     4.8420 ca         1 FD3      -0.192900
      7 C25         -0.4380    -2.0750     5.3440 ce         1 FD3       0.666800
      8 N43          0.5950    -2.5500     6.0960 nv         1 FD3      -0.922800
      9 N54         -1.4790    -2.7900     5.1490 n2         1 FD3      -0.852100
     10 C34         -1.2130     1.3280     1.7700 c3         1 FD3      -0.019100
     11 C31         -0.2650     0.9020     0.6380 c3         1 FD3       0.132500
     12 C35         -0.9400     1.1770    -0.7140 c          1 FD3       0.639100
     13 O36         -0.8290     2.3020    -1.1870 o          1 FD3      -0.614100
     14 N81         -1.6400     0.1970    -1.3050 n          1 FD3      -0.462800
     15 C71         -1.9010    -1.1280    -0.7700 c6         1 FD3       0.092500
     16 C72         -3.4000    -1.3700    -0.6910 c6         1 FD3       0.138300
     17 C74         -3.7670     0.1500    -2.5000 c6         1 FD3       0.138300
     18 C75         -2.2740     0.4120    -2.5980 c6         1 FD3       0.092500
     19 N40         -3.9900    -1.1940    -2.0020 n7         1 FD3      -0.806200
     20 N29          0.9740     1.6530     0.7380 n7         1 FD3      -0.786100
     21 S12          2.3530     0.9610     0.1460 sy         1 FD3       1.288200
     22 O32          3.3600     2.0070     0.1590 o          1 FD3      -0.602800
     23 O33          2.5690    -0.2690     0.8880 o          1 FD3      -0.602800
     24 C2           1.9810     0.5300    -1.5300 ca         1 FD3      -0.307500
     25 C3           2.0270     1.5390    -2.5160 ca         1 FD3      -0.045000
     26 C4           1.6010     1.2530    -3.7800 ca         1 FD3      -0.122000
     27 C9           1.0840    -1.0410    -3.1140 ca         1 FD3      -0.067000
     28 C10          1.1040    -0.0310    -4.1090 ca         1 FD3       0.003000
     29 C1           1.5380    -0.7330    -1.8130 ca         1 FD3      -0.004000
     30 C5           0.6140    -0.3330    -5.4000 ca         1 FD3      -0.130000
     31 C6           0.1260    -1.5810    -5.6820 ca         1 FD3      -0.106000
     32 C7           0.1130    -2.5860    -4.6930 ca         1 FD3      -0.128000
     33 C8           0.5850    -2.3230    -3.4360 ca         1 FD3      -0.106000
     34 H661        -1.3290    -1.0540     3.0210 ha         1 FD3       0.125000
     35 H641         0.1360     2.9280     3.5170 ha         1 FD3       0.136000
     36 H631         1.0910     2.3030     5.7010 ha         1 FD3       0.137000
     37 H621         0.8490     0.0090     6.5550 ha         1 FD3       0.143000
     38 H431         0.5540    -3.5250     6.3450 hn         1 FD3       0.415800
     39 H432         1.5230    -2.2100     5.9040 hn         1 FD3       0.415800
     40 H541        -2.1950    -2.2610     4.6660 hn         1 FD3       0.384400
     41 H341        -2.1830     0.8480     1.6190 hc         1 FD3       0.059700
     42 H342        -1.3880     2.4040     1.6950 hc         1 FD3       0.059700
     43 H311        -0.0180    -0.1500     0.7780 h1         1 FD3       0.085700
     44 H711        -1.4420    -1.8720    -1.4280 h1         1 FD3       0.064950
     45 H712        -1.4670    -1.2610     0.2170 h1         1 FD3       0.064950
     46 H721        -3.5710    -2.3920    -0.3480 h1         1 FD3       0.041950
     47 H722        -3.8240    -0.6940     0.0700 h1         1 FD3       0.041950
     48 H741        -4.2070     0.2460    -3.4940 h1         1 FD3       0.041950
     49 H742        -4.2200     0.9260    -1.8630 h1         1 FD3       0.041950
     50 H751        -2.0800     1.4260    -2.9340 h1         1 FD3       0.064950
     51 H752        -1.8210    -0.2740    -3.3210 h1         1 FD3       0.064950
     52 H401        -4.9820    -1.3850    -1.9580 hn         1 FD3       0.363800
     53 H291         0.8740     2.6180     0.4330 hn         1 FD3       0.444800
     54 H31          2.3880     2.5290    -2.2730 ha         1 FD3       0.154000
     55 H41          1.6270     2.0190    -4.5440 ha         1 FD3       0.138000
     56 H11          1.5100    -1.5020    -1.0520 ha         1 FD3       0.152000
     57 H51          0.6260     0.4360    -6.1610 ha         1 FD3       0.137000
     58 H61         -0.2510    -1.8030    -6.6710 ha         1 FD3       0.135000
     59 H71         -0.2720    -3.5680    -4.9350 ha         1 FD3       0.137000
     60 H81          0.5800    -3.0940    -2.6760 ha         1 FD3       0.135000
@<TRIPOS>BOND
     1     1     2 ar  
     2     1     3 ar  
     3     1    10 1   
     4     2     6 ar  
     5     2    34 1   
     6     3     4 ar  
     7     3    35 1   
     8     4     5 ar  
     9     4    36 1   
    10     5     6 ar  
    11     5    37 1   
    12     6     7 1   
    13     7     8 1   
    14     7     9 2   
    15     8    38 1   
    16     8    39 1   
    17     9    40 1   
    18    10    11 1   
    19    10    41 1   
    20    10    42 1   
    21    11    12 1   
    22    11    20 1   
    23    11    43 1   
    24    12    13 2   
    25    12    14 1   
    26    14    15 1   
    27    14    18 1   
    28    15    16 1   
    29    15    44 1   
    30    15    45 1   
    31    16    19 1   
    32    16    46 1   
    33    16    47 1   
    34    17    18 1   
    35    17    19 1   
    36    17    48 1   
    37    17    49 1   
    38    18    50 1   
    39    18    51 1   
    40    19    52 1   
    41    20    21 1   
    42    20    53 1   
    43    21    22 2   
    44    21    23 2   
    45    21    24 1   
    46    24    25 ar  
    47    24    29 ar  
    48    25    26 ar  
    49    25    54 1   
    50    26    28 ar  
    51    26    55 1   
    52    27    28 ar  
    53    27    29 ar  
    54    27    33 ar  
    55    28    30 ar  
    56    29    56 1   
    57    30    31 ar  
    58    30    57 1   
    59    31    32 ar  
    60    31    58 1   
    61    32    33 ar  
    62    32    59 1   
    63    33    60 1   
@<TRIPOS>SUBSTRUCTURE
     1 FD3         1 TEMP              0 ****  ****    0 ROOT
