@<TRIPOS>MOLECULE
FD4
   65    68     1     0     0
SMALL
bcc


@<TRIPOS>ATOM
      1 C65          0.9650     1.2220    -3.3980 ca         1 FD4      -0.088300
      2 C66          1.5590    -0.0190    -3.5880 ca         1 FD4      -0.075000
      3 C64          0.3650     1.8510    -4.4840 ca         1 FD4      -0.093000
      4 C63          0.3700     1.2520    -5.7340 ca         1 FD4      -0.135000
      5 C62          0.9600     0.0090    -5.9120 ca         1 FD4      -0.105000
      6 C61          1.5560    -0.6410    -4.8330 ca         1 FD4      -0.138900
      7 C25          2.2040    -1.9750    -4.9790 ce         1 FD4       0.667800
      8 N43          1.7770    -2.7170    -6.0430 nv         1 FD4      -0.962800
      9 N54          3.1200    -2.3060    -4.1520 n2         1 FD4      -0.841100
     10 C34          0.9560     1.8560    -2.0380 c3         1 FD4      -0.018100
     11 C31         -0.0110     1.1430    -1.0790 c3         1 FD4       0.136500
     12 C35          0.0680     1.7950     0.3090 c          1 FD4       0.645100
     13 O36         -0.7530     2.6500     0.6060 o          1 FD4      -0.606100
     14 N81          1.0790     1.4370     1.1210 n          1 FD4      -0.466800
     15 C71          1.2030     2.0040     2.4540 c6         1 FD4       0.080000
     16 C72          1.1080     0.9060     3.4990 c6         1 FD4       0.075500
     17 C74          2.0260    -0.6800     1.8910 c6         1 FD4       0.075500
     18 C75          2.0940     0.4350     0.8590 c6         1 FD4       0.080000
     19 N40          2.0770    -0.1440     3.2360 n          1 FD4      -0.482800
     20 N29         -1.3610     1.2350    -1.6010 n7         1 FD4      -0.790100
     21 S12         -2.4010    -0.0180    -1.3450 sy         1 FD4       1.292200
     22 O32         -3.6930     0.4380    -1.8280 o          1 FD4      -0.603800
     23 O33         -1.7870    -1.2070    -1.9090 o          1 FD4      -0.603800
     24 C2          -2.4980    -0.2340     0.4100 ca         1 FD4      -0.305500
     25 C3          -3.2720     0.6760     1.1610 ca         1 FD4      -0.044000
     26 C4          -3.2890     0.5700     2.5210 ca         1 FD4      -0.122000
     27 C9          -1.7800    -1.3490     2.4160 ca         1 FD4      -0.071000
     28 C10         -2.5390    -0.4300     3.1850 ca         1 FD4       0.002000
     29 C1          -1.7760    -1.2290     1.0080 ca         1 FD4      -0.009000
     30 C5          -2.5110    -0.5310     4.5940 ca         1 FD4      -0.129000
     31 C6          -1.7540    -1.4930     5.2070 ca         1 FD4      -0.101000
     32 C7          -1.0020    -2.4080     4.4410 ca         1 FD4      -0.126000
     33 C8          -1.0220    -2.3440     3.0750 ca         1 FD4      -0.113000
     34 C48          2.7860    -0.6950     4.2520 c          1 FD4       0.675100
     35 O49          2.7170    -0.2650     5.3950 o          1 FD4      -0.598100
     36 C55          3.6780    -1.8670     3.9180 c3         1 FD4      -0.178100
     37 H661         2.0340    -0.5270    -2.7560 ha         1 FD4       0.143000
     38 H641        -0.1030     2.8190    -4.3500 ha         1 FD4       0.133000
     39 H631        -0.0860     1.7550    -6.5770 ha         1 FD4       0.135000
     40 H621         0.9710    -0.4330    -6.9000 ha         1 FD4       0.136000
     41 H431         2.0830    -3.6770    -6.0860 hn         1 FD4       0.406800
     42 H432         0.8350    -2.5830    -6.3730 hn         1 FD4       0.406800
     43 H541         3.4560    -3.2480    -4.3340 hn         1 FD4       0.370400
     44 H341         0.6660     2.9070    -2.1120 hc         1 FD4       0.060200
     45 H342         1.9620     1.8420    -1.6090 hc         1 FD4       0.060200
     46 H311         0.2560     0.0860    -1.0330 h1         1 FD4       0.083700
     47 H711         0.4190     2.7370     2.6180 h1         1 FD4       0.067950
     48 H712         2.1670     2.5160     2.5310 h1         1 FD4       0.067950
     49 H721         0.0980     0.4820     3.4930 h1         1 FD4       0.062450
     50 H722         1.2880     1.3230     4.4850 h1         1 FD4       0.062450
     51 H741         2.8540    -1.3620     1.7140 h1         1 FD4       0.062450
     52 H742         1.1030    -1.2500     1.7500 h1         1 FD4       0.062450
     53 H751         1.9950    -0.0000    -0.1320 h1         1 FD4       0.067950
     54 H752         3.0760     0.9150     0.8980 h1         1 FD4       0.067950
     55 H291        -1.7950     2.1360    -1.4240 hn         1 FD4       0.446800
     56 H31         -3.8450     1.4510     0.6700 ha         1 FD4       0.154000
     57 H41         -3.8760     1.2640     3.1090 ha         1 FD4       0.139000
     58 H11         -1.1940    -1.9320     0.4240 ha         1 FD4       0.152000
     59 H51         -3.0920     0.1680     5.1830 ha         1 FD4       0.139000
     60 H61         -1.7320    -1.5570     6.2860 ha         1 FD4       0.139000
     61 H71         -0.4140    -3.1660     4.9410 ha         1 FD4       0.137000
     62 H81         -0.4530    -3.0520     2.4850 ha         1 FD4       0.132000
     63 H551         4.1870    -2.1910     4.8220 hc         1 FD4       0.061700
     64 H552         3.1070    -2.7100     3.5260 hc         1 FD4       0.061700
     65 H553         4.4330    -1.6090     3.1740 hc         1 FD4       0.061700
@<TRIPOS>BOND
     1     1     2 ar  
     2     1     3 ar  
     3     1    10 1   
     4     2     6 ar  
     5     2    37 1   
     6     3     4 ar  
     7     3    38 1   
     8     4     5 ar  
     9     4    39 1   
    10     5     6 ar  
    11     5    40 1   
    12     6     7 1   
    13     7     8 1   
    14     7     9 2   
    15     8    41 1   
    16     8    42 1   
    17     9    43 1   
    18    10    11 1   
    19    10    44 1   
    20    10    45 1   
    21    11    12 1   
    22    11    20 1   
    23    11    46 1   
    24    12    13 2   
    25    12    14 1   
    26    14    15 1   
    27    14    18 1   
    28    15    16 1   
    29    15    47 1   
    30    15    48 1   
    31    16    19 1   
    32    16    49 1   
    33    16    50 1   
    34    17    18 1   
    35    17    19 1   
    36    17    51 1   
    37    17    52 1   
    38    18    53 1   
    39    18    54 1   
    40    19    34 1   
    41    20    21 1   
    42    20    55 1   
    43    21    22 2   
    44    21    23 2   
    45    21    24 1   
    46    24    25 ar  
    47    24    29 ar  
    48    25    26 ar  
    49    25    56 1   
    50    26    28 ar  
    51    26    57 1   
    52    27    28 ar  
    53    27    29 ar  
    54    27    33 ar  
    55    28    30 ar  
    56    29    58 1   
    57    30    31 ar  
    58    30    59 1   
    59    31    32 ar  
    60    31    60 1   
    61    32    33 ar  
    62    32    61 1   
    63    33    62 1   
    64    34    35 2   
    65    34    36 1   
    66    36    63 1   
    67    36    64 1   
    68    36    65 1   
@<TRIPOS>SUBSTRUCTURE
     1 FD4         1 TEMP              0 ****  ****    0 ROOT
