@<TRIPOS>MOLECULE
FD4
   65    68     1     0     0
SMALL
No Charge or Current Charge


@<TRIPOS>ATOM
      1 C65          0.8510     1.0000    -3.3410 ca         1 FD4      -0.088300
      2 C66          1.5180    -0.2370    -3.2320 ca         1 FD4      -0.057000
      3 C64          0.2440     1.3540    -4.5580 ca         1 FD4      -0.075000
      4 C63          0.3110     0.4850    -5.6570 ca         1 FD4      -0.117000
      5 C62          0.9760    -0.7480    -5.5460 ca         1 FD4      -0.087000
      6 C61          1.5760    -1.1360    -4.3230 ca         1 FD4      -0.138900
      7 C25          2.3190    -2.4340    -4.1920 ce         1 FD4       0.667800
      8 N43          2.0270    -3.4300    -5.0570 nv         1 FD4      -1.073200
      9 N54          3.1390    -2.6790    -3.2560 n2         1 FD4      -0.841100
     10 C34          0.7900     1.9440    -2.1430 c3         1 FD4      -0.018100
     11 C31         -0.3380     1.5780    -1.1460 c3         1 FD4       0.136500
     12 C35         -0.1260     2.3430     0.2100 c          1 FD4       0.578100
     13 O36         -0.6200     3.4540     0.3730 o          1 FD4      -0.606100
     14 N81          0.5610     1.6970     1.2730 n          1 FD4      -0.399800
     15 C71          0.7400     2.4080     2.5650 c6         1 FD4       0.080000
     16 C72          1.0070     1.4800     3.7750 c6         1 FD4       0.075500
     17 C74          1.9070    -0.2550     2.1970 c6         1 FD4       0.075500
     18 C75          1.6530     0.7190     1.0230 c6         1 FD4       0.080000
     19 N40          1.9730     0.3680     3.5510 n          1 FD4      -0.415800
     20 N29         -1.6680     1.8310    -1.7910 n7         1 FD4      -0.845300
     21 S12         -3.0880     1.2310    -1.1410 sy         1 FD4       1.150600
     22 O32         -3.8510     2.4240    -0.7720 o          1 FD4      -0.533000
     23 O33         -3.5840     0.2560    -2.1160 o          1 FD4      -0.533000
     24 C2          -2.5580     0.3860     0.3610 ca         1 FD4      -0.305500
     25 C3          -2.7070     1.0070     1.6190 ca         1 FD4      -0.026000
     26 C4          -2.2830     0.3480     2.7840 ca         1 FD4      -0.104000
     27 C9          -1.5580    -1.5590     1.4490 ca         1 FD4      -0.071000
     28 C10         -1.6950    -0.9270     2.7040 ca         1 FD4       0.002000
     29 C1          -2.0070    -0.9110     0.2830 ca         1 FD4       0.009000
     30 C5          -1.2360    -1.5710     3.8690 ca         1 FD4      -0.111000
     31 C6          -0.6360    -2.8390     3.7830 ca         1 FD4      -0.083000
     32 C7          -0.5020    -3.4700     2.5350 ca         1 FD4      -0.108000
     33 C8          -0.9640    -2.8340     1.3690 ca         1 FD4      -0.095000
     34 C48          2.4270    -0.3750     4.6670 c          1 FD4       0.608100
     35 O49          2.1310    -0.0440     5.8080 o          1 FD4      -0.598100
     36 C55          3.3570    -1.5680     4.4340 c3         1 FD4      -0.178100
     37 H661         1.9880    -0.5040    -2.2880 ha         1 FD4       0.125000
     38 H641        -0.2780     2.3040    -4.6540 ha         1 FD4       0.115000
     39 H631        -0.1510     0.7680    -6.6000 ha         1 FD4       0.117000
     40 H621         1.0300    -1.3900    -6.4220 ha         1 FD4       0.118000
     41 H431         2.1810    -4.3690    -4.7110 hn         1 FD4       0.462000
     42 H432         1.1750    -3.3030    -5.5890 hn         1 FD4       0.462000
     43 H541         3.6630    -3.5240    -3.5080 hn         1 FD4       0.370400
     44 H341         0.6570     2.9820    -2.4750 hc         1 FD4       0.060200
     45 H342         1.7540     1.9250    -1.6220 hc         1 FD4       0.060200
     46 H311        -0.2370     0.5070    -0.9420 h1         1 FD4       0.083700
     47 H711        -0.1490     3.0150     2.7890 h1         1 FD4       0.067950
     48 H712         1.5860     3.1020     2.4620 h1         1 FD4       0.067950
     49 H721         0.0520     1.0390     4.0890 h1         1 FD4       0.062450
     50 H722         1.3540     2.1030     4.6120 h1         1 FD4       0.062450
     51 H741         2.8410    -0.7910     1.9810 h1         1 FD4       0.062450
     52 H742         1.1050    -1.0040     2.2060 h1         1 FD4       0.062450
     53 H751         1.4610     0.1160     0.1280 h1         1 FD4       0.067950
     54 H752         2.5790     1.2820     0.8340 h1         1 FD4       0.067950
     55 H291        -1.8720     2.8300    -1.7460 hn         1 FD4       0.502000
     56 H31         -3.1420     2.0020     1.7010 ha         1 FD4       0.136000
     57 H41         -2.3980     0.8390     3.7480 ha         1 FD4       0.121000
     58 H11         -1.9010    -1.4020    -0.6830 ha         1 FD4       0.134000
     59 H51         -1.3360    -1.0890     4.8380 ha         1 FD4       0.121000
     60 H61         -0.2780    -3.3330     4.6840 ha         1 FD4       0.121000
     61 H71         -0.0390    -4.4520     2.4700 ha         1 FD4       0.119000
     62 H81         -0.8530    -3.3290     0.4070 ha         1 FD4       0.114000
     63 H551         3.7220    -2.0030     5.3710 hc         1 FD4       0.061700
     64 H552         2.8350    -2.3180     3.8300 hc         1 FD4       0.061700
     65 H553         4.1830    -1.2620     3.7840 hc         1 FD4       0.061700
@<TRIPOS>BOND
     1     1     2 ar  
     2     1     3 ar  
     3     1    10 1   
     4     2     6 ar  
     5     2    37 1   
     6     3     4 ar  
     7     3    38 1   
     8     4     5 ar  
     9     4    39 1   
    10     5     6 ar  
    11     5    40 1   
    12     6     7 1   
    13     7     8 1   
    14     7     9 2   
    15     8    41 1   
    16     8    42 1   
    17     9    43 1   
    18    10    11 1   
    19    10    44 1   
    20    10    45 1   
    21    11    12 1   
    22    11    20 1   
    23    11    46 1   
    24    12    13 2   
    25    12    14 1   
    26    14    15 1   
    27    14    18 1   
    28    15    16 1   
    29    15    47 1   
    30    15    48 1   
    31    16    19 1   
    32    16    49 1   
    33    16    50 1   
    34    17    18 1   
    35    17    19 1   
    36    17    51 1   
    37    17    52 1   
    38    18    53 1   
    39    18    54 1   
    40    19    34 1   
    41    20    21 1   
    42    20    55 1   
    43    21    22 2   
    44    21    23 2   
    45    21    24 1   
    46    24    25 ar  
    47    24    29 ar  
    48    25    26 ar  
    49    25    56 1   
    50    26    28 ar  
    51    26    57 1   
    52    27    28 ar  
    53    27    29 ar  
    54    27    33 ar  
    55    28    30 ar  
    56    29    58 1   
    57    30    31 ar  
    58    30    59 1   
    59    31    32 ar  
    60    31    60 1   
    61    32    33 ar  
    62    32    61 1   
    63    33    62 1   
    64    34    35 2   
    65    34    36 1   
    66    36    63 1   
    67    36    64 1   
    68    36    65 1   
@<TRIPOS>SUBSTRUCTURE
     1 FD4         1 TEMP              0 ****  ****    0 ROOT
