@<TRIPOS>MOLECULE
FD6
   48    51     1     0     0
SMALL
No Charge or Current Charge


@<TRIPOS>ATOM
      1 SAQ         -4.1630     0.5900    -1.2410 ss         1 FD6       0.036000
      2 CAR         -2.2020    -2.9010     1.0130 ca         1 FD6       0.155000
      3 NAY         -1.3520     0.5420    -0.1020 na         1 FD6      -0.090000
      4 CAE         -3.5030    -3.0350     0.5050 ca         1 FD6      -0.132000
      5 NAX          3.6050     0.2310    -0.4800 n3         1 FD6      -0.485400
      6 CAH         -4.0950    -1.9690    -0.1920 ca         1 FD6      -0.050000
      7 NAP          2.3380     0.4200    -1.1230 n7         1 FD6      -0.638200
      8 NAW          6.5430     0.2370    -0.0450 n3         1 FD6      -0.719600
      9 CAT         -3.3820    -0.7710    -0.3820 ca         1 FD6      -0.139000
     10 CAV         -2.0680    -0.6370     0.1180 ca         1 FD6       0.044000
     11 CAI         -1.4860    -1.7100     0.8220 ca         1 FD6      -0.161000
     12 CAS         -3.3140     1.9430    -0.4340 ca         1 FD6      -0.134000
     13 CAF         -3.9650     3.1810    -0.2900 ca         1 FD6      -0.055000
     14 CAC         -3.3200     4.2420     0.3670 ca         1 FD6      -0.134000
     15 CAD         -2.0270     4.0670     0.8840 ca         1 FD6      -0.075000
     16 ClAB        -1.4640    -4.2330     1.8920 cl         1 FD6      -0.200000
     17 CAG         -1.3730     2.8320     0.7370 ca         1 FD6      -0.162000
     18 CAU         -2.0080     1.7630     0.0730 ca         1 FD6       0.033000
     19 CAO         -0.1470     0.4960    -0.9610 c3         1 FD6       0.066600
     20 CAJ          1.1910     0.4840    -0.1880 c3         1 FD6       0.131800
     21 CAN          4.4880    -0.7720    -1.1480 c6         1 FD6       0.148800
     22 CAL          5.7970    -1.0270    -0.3370 c6         1 FD6       0.164800
     23 CAK          5.6480     1.2180     0.6440 c6         1 FD6       0.164800
     24 CAM          4.3380     1.4950    -0.1580 c6         1 FD6       0.148800
     25 CAA          7.8030    -0.0010     0.6900 c3         1 FD6       0.154100
     26 HAM1         4.5990     2.0260    -1.0850 h1         1 FD6       0.043950
     27 HAM2         3.7000     2.1680     0.4330 h1         1 FD6       0.043950
     28 HAK1         5.3730     0.8420     1.6410 h1         1 FD6       0.040200
     29 HAK2         6.1740     2.1720     0.7960 h1         1 FD6       0.040200
     30 HAA1         8.4560    -0.6840     0.1300 h1         1 FD6       0.031700
     31 HAA2         8.3480     0.9410     0.8400 h1         1 FD6       0.031700
     32 HAA3         7.6050    -0.4450     1.6750 h1         1 FD6       0.031700
     33 HAL1         6.4320    -1.7210    -0.9070 h1         1 FD6       0.040200
     34 HAL2         5.5310    -1.5340     0.6020 h1         1 FD6       0.040200
     35 HAN1         3.9570    -1.7280    -1.2690 h1         1 FD6       0.043950
     36 HAN2         4.7590    -0.4240    -2.1550 h1         1 FD6       0.043950
     37 HAP          2.3070     1.1770    -1.8230 hn         1 FD6       0.389000
     38 HAJ1         1.2080    -0.3820     0.4860 h1         1 FD6       0.051200
     39 HAJ2         1.2600     1.3860     0.4320 h1         1 FD6       0.051200
     40 HAO1        -0.2020    -0.4020    -1.5900 h1         1 FD6       0.065700
     41 HAO2        -0.1660     1.3650    -1.6310 h1         1 FD6       0.065700
     42 HAI         -0.4830    -1.6250     1.2270 ha         1 FD6       0.140000
     43 HAE         -4.0520    -3.9610     0.6550 ha         1 FD6       0.134000
     44 HAH         -5.1070    -2.0700    -0.5790 ha         1 FD6       0.129000
     45 HAF         -4.9710     3.3170    -0.6810 ha         1 FD6       0.125000
     46 HAG         -0.3740     2.7090     1.1470 ha         1 FD6       0.113000
     47 HAD         -1.5300     4.8880     1.3980 ha         1 FD6       0.114000
     48 HAC         -3.8260     5.1990     0.4800 ha         1 FD6       0.120000
@<TRIPOS>BOND
     1     1     9 1   
     2     1    12 1   
     3     2     4 ar  
     4     2    11 ar  
     5     2    16 1   
     6     3    10 1   
     7     3    18 1   
     8     3    19 1   
     9     4     6 ar  
    10     4    43 1   
    11     5     7 1   
    12     5    21 1   
    13     5    24 1   
    14     6     9 ar  
    15     6    44 1   
    16     7    20 1   
    17     7    37 1   
    18     8    22 1   
    19     8    23 1   
    20     8    25 1   
    21     9    10 ar  
    22    10    11 ar  
    23    11    42 1   
    24    12    13 ar  
    25    12    18 ar  
    26    13    14 ar  
    27    13    45 1   
    28    14    15 ar  
    29    14    48 1   
    30    15    17 ar  
    31    15    47 1   
    32    17    18 ar  
    33    17    46 1   
    34    19    20 1   
    35    19    40 1   
    36    19    41 1   
    37    20    38 1   
    38    20    39 1   
    39    21    22 1   
    40    21    35 1   
    41    21    36 1   
    42    22    33 1   
    43    22    34 1   
    44    23    24 1   
    45    23    28 1   
    46    23    29 1   
    47    24    26 1   
    48    24    27 1   
    49    25    30 1   
    50    25    31 1   
    51    25    32 1   
@<TRIPOS>SUBSTRUCTURE
     1 FD6         1 TEMP              0 ****  ****    0 ROOT
