@<TRIPOS>MOLECULE
FD6
   48    51     1     0     0
SMALL
bcc


@<TRIPOS>ATOM
      1 SAQ         -4.4050     0.6830    -0.3190 ss         1 FD6      -0.253800
      2 CAR         -1.9700    -2.9950     0.5110 ca         1 FD6       0.063400
      3 NAY         -1.4210     0.4700    -0.6700 na         1 FD6      -0.162100
      4 CAE         -3.3070    -2.9890     0.8560 ca         1 FD6      -0.150000
      5 NAX          3.4470     0.0960    -0.3520 n3         1 FD6      -0.485400
      6 CAH         -4.0150    -1.8120     0.6660 ca         1 FD6      -0.068000
      7 NAP          2.2900     0.2510    -1.1300 n7         1 FD6      -0.583000
      8 NAW          6.2150     0.3860     0.2520 n3         1 FD6      -0.719600
      9 CAT         -3.4050    -0.6870     0.1340 ca         1 FD6       0.005900
     10 CAV         -2.0370    -0.6790    -0.1710 ca         1 FD6       0.094700
     11 CAI         -1.3270    -1.8670     0.0230 ca         1 FD6      -0.179000
     12 CAS         -3.2400     1.9700    -0.0500 ca         1 FD6       0.010900
     13 CAF         -3.7060     3.2220     0.3220 ca         1 FD6      -0.073000
     14 CAC         -2.8450     4.3090     0.3690 ca         1 FD6      -0.152000
     15 CAD         -1.5110     4.1160     0.0530 ca         1 FD6      -0.093000
     16 CLAB        -1.0450    -4.4480     0.7110 cl         1 FD6      -0.108400
     17 CAG         -1.0330     2.8550    -0.2760 ca         1 FD6      -0.180000
     18 CAU         -1.8860     1.7490    -0.3310 ca         1 FD6       0.083700
     19 CAO         -0.1110     0.3460    -1.2880 c3         1 FD6       0.037300
     20 CAJ          1.0860     0.3340    -0.3300 c3         1 FD6       0.131800
     21 CAN          4.4560    -0.6270    -1.1020 c6         1 FD6       0.148800
     22 CAL          5.6770    -0.8670    -0.2350 c6         1 FD6       0.164800
     23 CAK          5.2070     1.1050     1.0020 c6         1 FD6       0.164800
     24 CAM          3.9790     1.3540     0.1450 c6         1 FD6       0.148800
     25 CAA          7.4210     0.1900     1.0220 c3         1 FD6       0.154100
     26 HAM1         4.2430     2.0310    -0.6850 h1         1 FD6       0.043950
     27 HAM2         3.2230     1.8570     0.7500 h1         1 FD6       0.043950
     28 HAK1         4.9060     0.5580     1.9130 h1         1 FD6       0.040200
     29 HAK2         5.6140     2.0660     1.3270 h1         1 FD6       0.040200
     30 HAA1         8.1760    -0.3120     0.4150 h1         1 FD6       0.031700
     31 HAA2         7.8280     1.1540     1.3340 h1         1 FD6       0.031700
     32 HAA3         7.2660    -0.4150     1.9290 h1         1 FD6       0.031700
     33 HAL1         6.4390    -1.3790    -0.8280 h1         1 FD6       0.040200
     34 HAL2         5.4070    -1.5450     0.5940 h1         1 FD6       0.040200
     35 HAN1         4.0390    -1.5840    -1.4190 h1         1 FD6       0.043950
     36 HAN2         4.7590    -0.0800    -2.0100 h1         1 FD6       0.043950
     37 HAP          2.3710     1.0710    -1.7310 hn         1 FD6       0.333800
     38 HAJ1         1.0550    -0.5420     0.3180 h1         1 FD6       0.051200
     39 HAJ2         1.0530     1.2040     0.3370 h1         1 FD6       0.051200
     40 HAO1        -0.1000    -0.5660    -1.8870 h1         1 FD6       0.065700
     41 HAO2        -0.0030     1.1670    -2.0000 h1         1 FD6       0.065700
     42 HAI         -0.2760    -1.9420    -0.2080 ha         1 FD6       0.158000
     43 HAE         -3.7930    -3.8700     1.2480 ha         1 FD6       0.152000
     44 HAH         -5.0690    -1.7800     0.9100 ha         1 FD6       0.147000
     45 HAF         -4.7570     3.3500     0.5500 ha         1 FD6       0.143000
     46 HAG          0.0190     2.7590    -0.4960 ha         1 FD6       0.131000
     47 HAD         -0.8180     4.9470     0.0720 ha         1 FD6       0.132000
     48 HAC         -3.2170     5.2870     0.6400 ha         1 FD6       0.138000
@<TRIPOS>BOND
     1     1     9 1   
     2     1    12 1   
     3     2     4 ar  
     4     2    11 ar  
     5     2    16 1   
     6     3    10 1   
     7     3    18 1   
     8     3    19 1   
     9     4     6 ar  
    10     4    43 1   
    11     5     7 1   
    12     5    21 1   
    13     5    24 1   
    14     6     9 ar  
    15     6    44 1   
    16     7    20 1   
    17     7    37 1   
    18     8    22 1   
    19     8    23 1   
    20     8    25 1   
    21     9    10 ar  
    22    10    11 ar  
    23    11    42 1   
    24    12    13 ar  
    25    12    18 ar  
    26    13    14 ar  
    27    13    45 1   
    28    14    15 ar  
    29    14    48 1   
    30    15    17 ar  
    31    15    47 1   
    32    17    18 ar  
    33    17    46 1   
    34    19    20 1   
    35    19    40 1   
    36    19    41 1   
    37    20    38 1   
    38    20    39 1   
    39    21    22 1   
    40    21    35 1   
    41    21    36 1   
    42    22    33 1   
    43    22    34 1   
    44    23    24 1   
    45    23    28 1   
    46    23    29 1   
    47    24    26 1   
    48    24    27 1   
    49    25    30 1   
    50    25    31 1   
    51    25    32 1   
@<TRIPOS>SUBSTRUCTURE
     1 FD6         1 TEMP              0 ****  ****    0 ROOT
