@<TRIPOS>MOLECULE
FD7
   41    41     1     0     0
SMALL
No Charge or Current Charge


@<TRIPOS>ATOM
      1 C10          1.8700    -0.1460     0.2380 ca         1 FD7      -0.027000
      2 C12         -0.5400    -0.2100    -0.5190 c          1 FD7       0.674100
      3 C14         -2.9720    -0.2220    -0.6150 c2         1 FD7       0.682800
      4 C16         -5.3240     0.6240    -0.3510 c3         1 FD7       0.213800
      5 C17         -6.0450     1.6200     0.5710 c3         1 FD7      -0.102100
      6 C01          1.4210     3.1250     0.4270 c3         1 FD7      -0.087100
      7 C02          1.7970     2.2350    -0.7730 c3         1 FD7      -0.028600
      8 C03          2.5360     0.9610    -0.3510 ca         1 FD7      -0.066800
      9 C04          3.9340     0.9140    -0.5190 ca         1 FD7      -0.107500
     10 C05          4.6670    -0.2080    -0.1070 ca         1 FD7      -0.104000
     11 C06          4.0100    -1.2930     0.4890 ca         1 FD7      -0.107500
     12 C07          2.6150    -1.2700     0.6740 ca         1 FD7      -0.066800
     13 C08          1.9410    -2.4780     1.3280 c3         1 FD7      -0.028600
     14 C09          1.3860    -3.4740     0.2920 c3         1 FD7      -0.087100
     15 N11          0.4640    -0.1340     0.4260 ns         1 FD7      -0.198000
     16 N13         -1.7840    -0.1250     0.0340 ns         1 FD7      -0.469400
     17 N15         -3.9030     0.5320     0.0180 nu         1 FD7      -0.965400
     18 N18         -3.3070    -1.1230    -1.4280 n2         1 FD7      -0.824100
     19 O19         -0.3330    -0.3340    -1.7190 o          1 FD7      -0.567100
     20 H1          -5.8060    -0.3590    -0.2600 h1         1 FD7       0.040200
     21 H2          -5.4250     0.9610    -1.3920 h1         1 FD7       0.040200
     22 H3          -5.9780     1.2990     1.6170 hc         1 FD7       0.043367
     23 H4          -5.6080     2.6210     0.4810 hc         1 FD7       0.043367
     24 H5          -7.1060     1.6840     0.3000 hc         1 FD7       0.043367
     25 H6           0.9190     4.0370     0.0830 hc         1 FD7       0.036367
     26 H7           0.7440     2.5990     1.1100 hc         1 FD7       0.036367
     27 H8           2.3180     3.4160     0.9860 hc         1 FD7       0.036367
     28 H9           0.8930     1.9980    -1.3430 hc         1 FD7       0.045700
     29 H10          2.4200     2.8250    -1.4560 hc         1 FD7       0.045700
     30 H11          4.4610     1.7550    -0.9650 ha         1 FD7       0.113000
     31 H12          5.7460    -0.2340    -0.2430 ha         1 FD7       0.114000
     32 H13          4.5900    -2.1560     0.8090 ha         1 FD7       0.113000
     33 H14          2.6570    -3.0070     1.9700 hc         1 FD7       0.045700
     34 H15          1.1300    -2.1610     1.9940 hc         1 FD7       0.045700
     35 H16          0.6280    -2.9980    -0.3410 hc         1 FD7       0.036367
     36 H17          2.1910    -3.8450    -0.3540 hc         1 FD7       0.036367
     37 H18          0.9250    -4.3320     0.7940 hc         1 FD7       0.036367
     38 H19          0.1630    -0.0780     1.3890 hn         1 FD7       0.147000
     39 H20         -1.8320     0.0120     1.0290 hn         1 FD7       0.312500
     40 H21         -3.5270     1.3100     0.5530 hn         1 FD7       0.468000
     41 H22         -4.3120    -1.0070    -1.5840 hn         1 FD7       0.387400
@<TRIPOS>BOND
     1     1     8 ar  
     2     1    12 ar  
     3     1    15 1   
     4     2    15 1   
     5     2    16 1   
     6     2    19 2   
     7     3    16 1   
     8     3    17 1   
     9     3    18 2   
    10     4     5 1   
    11     4    17 1   
    12     4    20 1   
    13     4    21 1   
    14     5    22 1   
    15     5    23 1   
    16     5    24 1   
    17     6     7 1   
    18     6    25 1   
    19     6    26 1   
    20     6    27 1   
    21     7     8 1   
    22     7    28 1   
    23     7    29 1   
    24     8     9 ar  
    25     9    10 ar  
    26     9    30 1   
    27    10    11 ar  
    28    10    31 1   
    29    11    12 ar  
    30    11    32 1   
    31    12    13 1   
    32    13    14 1   
    33    13    33 1   
    34    13    34 1   
    35    14    35 1   
    36    14    36 1   
    37    14    37 1   
    38    15    38 1   
    39    16    39 1   
    40    17    40 1   
    41    18    41 1   
@<TRIPOS>SUBSTRUCTURE
     1 FD7         1 TEMP              0 ****  ****    0 ROOT
