@<TRIPOS>MOLECULE
FD7
   41    41     1     0     0
SMALL
bcc


@<TRIPOS>ATOM
      1 C10          1.8840    -0.0920     0.2710 ca         1 FD7       0.065600
      2 C12         -0.4720    -0.1300    -0.3460 c          1 FD7       0.808100
      3 C14         -2.9490    -0.1570    -0.4720 c2         1 FD7       0.682800
      4 C16         -5.3070     0.5150    -0.3790 c3         1 FD7       0.213800
      5 C17         -6.2240     1.3360     0.5070 c3         1 FD7      -0.102100
      6 C01          1.6730     3.1510     0.4920 c3         1 FD7      -0.087100
      7 C02          1.8490     2.2450    -0.7260 c3         1 FD7      -0.028600
      8 C03          2.5440     0.9550    -0.3830 ca         1 FD7      -0.066800
      9 C04          3.8990     0.8090    -0.6650 ca         1 FD7      -0.125500
     10 C05          4.5870    -0.3350    -0.2900 ca         1 FD7      -0.122000
     11 C06          3.9230    -1.3520     0.3750 ca         1 FD7      -0.125500
     12 C07          2.5630    -1.2510     0.6580 ca         1 FD7      -0.066800
     13 C08          1.8550    -2.3950     1.3320 c3         1 FD7      -0.028600
     14 C09          1.2380    -3.3640     0.3250 c3         1 FD7      -0.087100
     15 N11          0.5080     0.0380     0.5860 ns         1 FD7      -0.524100
     16 N13         -1.7320     0.0580     0.1770 ns         1 FD7      -0.536400
     17 N15         -3.9460     0.5780     0.1110 nu         1 FD7      -0.910200
     18 N18         -3.0560    -0.9950    -1.4230 n2         1 FD7      -0.824100
     19 O19         -0.2370    -0.3860    -1.5100 o          1 FD7      -0.567100
     20 H1          -5.6320    -0.5280    -0.3750 h1         1 FD7       0.040200
     21 H2          -5.3790     0.8670    -1.4150 h1         1 FD7       0.040200
     22 H3          -6.2110     0.9710     1.5340 hc         1 FD7       0.043367
     23 H4          -5.9330     2.3880     0.5140 hc         1 FD7       0.043367
     24 H5          -7.2480     1.2800     0.1400 hc         1 FD7       0.043367
     25 H6           1.1780     4.0820     0.2120 hc         1 FD7       0.036367
     26 H7           1.0670     2.6710     1.2610 hc         1 FD7       0.036367
     27 H8           2.6370     3.4050     0.9330 hc         1 FD7       0.036367
     28 H9           0.8790     2.0570    -1.1890 hc         1 FD7       0.045700
     29 H10          2.4440     2.7710    -1.4760 hc         1 FD7       0.045700
     30 H11          4.4210     1.6090    -1.1760 ha         1 FD7       0.131000
     31 H12          5.6430    -0.4290    -0.5090 ha         1 FD7       0.132000
     32 H13          4.4620    -2.2430     0.6770 ha         1 FD7       0.131000
     33 H14          2.5680    -2.9340     1.9590 hc         1 FD7       0.045700
     34 H15          1.0780    -2.0260     2.0020 hc         1 FD7       0.045700
     35 H16          0.5380    -2.8610    -0.3420 hc         1 FD7       0.036367
     36 H17          2.0080    -3.8260    -0.2940 hc         1 FD7       0.036367
     37 H18          0.6990    -4.1620     0.8360 hc         1 FD7       0.036367
     38 H19          0.2580     0.1200     1.5590 hn         1 FD7       0.313500
     39 H20         -1.7970     0.4020     1.1230 hn         1 FD7       0.312500
     40 H21         -3.6700     1.4680     0.4990 hn         1 FD7       0.412800
     41 H22         -3.9880    -0.9760    -1.8210 hn         1 FD7       0.387400
@<TRIPOS>BOND
     1     1     8 ar  
     2     1    12 ar  
     3     1    15 1   
     4     2    15 1   
     5     2    16 1   
     6     2    19 2   
     7     3    16 1   
     8     3    17 1   
     9     3    18 2   
    10     4     5 1   
    11     4    17 1   
    12     4    20 1   
    13     4    21 1   
    14     5    22 1   
    15     5    23 1   
    16     5    24 1   
    17     6     7 1   
    18     6    25 1   
    19     6    26 1   
    20     6    27 1   
    21     7     8 1   
    22     7    28 1   
    23     7    29 1   
    24     8     9 ar  
    25     9    10 ar  
    26     9    30 1   
    27    10    11 ar  
    28    10    31 1   
    29    11    12 ar  
    30    11    32 1   
    31    12    13 1   
    32    13    14 1   
    33    13    33 1   
    34    13    34 1   
    35    14    35 1   
    36    14    36 1   
    37    14    37 1   
    38    15    38 1   
    39    16    39 1   
    40    17    40 1   
    41    18    41 1   
@<TRIPOS>SUBSTRUCTURE
     1 FD7         1 TEMP              0 ****  ****    0 ROOT
