@<TRIPOS>MOLECULE
FD8
   40    42     1     0     0
SMALL
bcc


@<TRIPOS>ATOM
      1 N           -2.3770    -1.1230     0.5300 ns         1 FD8      -0.464100
      2 F1          -6.0310     2.4000     0.8280 f          1 FD8      -0.227967
      3 O1          -2.6220     0.2970    -1.2410 o          1 FD8      -0.542100
      4 C2          -5.5060     0.3040    -0.1050 ca         1 FD8      -0.153300
      5 F2          -4.7900     2.3990    -0.9220 f          1 FD8      -0.227967
      6 O2           2.1020     0.0430    -0.6740 os         1 FD8      -0.218200
      7 C3          -4.5670    -0.7070    -0.3230 ca         1 FD8      -0.108600
      8 F3          -3.9890     1.7510     0.9720 f          1 FD8      -0.227967
      9 C4          -5.0040    -2.0040    -0.5640 ca         1 FD8      -0.115000
     10 C5          -6.3600    -2.2960    -0.6110 ca         1 FD8      -0.102000
     11 C6          -7.2880    -1.2890    -0.4040 ca         1 FD8      -0.116000
     12 C7          -6.8610     0.0050    -0.1440 ca         1 FD8      -0.084000
     13 C8          -3.0910    -0.4380    -0.3960 c          1 FD8       0.683700
     14 C9          -0.9960    -1.1550     0.7340 ca         1 FD8       0.105600
     15 C10         -0.5440    -1.8800     1.8410 ca         1 FD8      -0.207000
     16 C11          0.8070    -1.9560     2.1100 ca         1 FD8      -0.065000
     17 C12          1.7420    -1.3250     1.2980 ca         1 FD8      -0.219000
     18 C13          1.2760    -0.6160     0.2040 ca         1 FD8       0.149100
     19 C14         -0.0770    -0.5190    -0.0940 ca         1 FD8      -0.167000
     20 C15          3.4310     0.0650    -0.4280 ca         1 FD8       0.045100
     21 C16          4.2660    -0.8990    -0.9740 ca         1 FD8       0.128900
     22 C17          5.6330    -0.8400    -0.7790 ca         1 FD8       0.067400
     23 C18          6.1750     0.1860    -0.0270 ca         1 FD8       0.107900
     24 C19          5.3530     1.1490     0.5300 ca         1 FD8       0.067400
     25 C20          3.9870     1.0830     0.3300 ca         1 FD8       0.128900
     26 HN          -2.9170    -1.6450     1.2050 hn         1 FD8       0.324500
     27 H4          -4.2810    -2.7910    -0.7350 ha         1 FD8       0.145000
     28 H5          -6.6850    -3.3080    -0.8110 ha         1 FD8       0.143000
     29 H6          -8.3470    -1.5050    -0.4370 ha         1 FD8       0.144000
     30 H7          -7.6010     0.7740     0.0320 ha         1 FD8       0.155000
     31 H10         -1.2540    -2.3810     2.4880 ha         1 FD8       0.133000
     32 H11          1.1470    -2.5170     2.9690 ha         1 FD8       0.136000
     33 H12          2.7950    -1.4000     1.5340 ha         1 FD8       0.141000
     34 H14         -0.3870     0.0430    -0.9600 ha         1 FD8       0.186000
     35 C1          -5.0770     1.7130     0.1900 c3         1 FD8       0.721200
     36 F4           3.7440    -1.8880    -1.6860 f          1 FD8      -0.091400
     37 F5           6.4250    -1.7640    -1.3060 f          1 FD8      -0.095400
     38 F6           7.4850     0.2470     0.1600 f          1 FD8      -0.092900
     39 F7           5.8790     2.1310     1.2500 f          1 FD8      -0.095400
     40 F8           3.1980     2.0020     0.8680 f          1 FD8      -0.091400
@<TRIPOS>BOND
     1     1    13 1   
     2     1    14 1   
     3     1    26 1   
     4     2    35 1   
     5     3    13 2   
     6     4     7 ar  
     7     4    12 ar  
     8     4    35 1   
     9     5    35 1   
    10     6    18 1   
    11     6    20 1   
    12     7     9 ar  
    13     7    13 1   
    14     8    35 1   
    15     9    10 ar  
    16     9    27 1   
    17    10    11 ar  
    18    10    28 1   
    19    11    12 ar  
    20    11    29 1   
    21    12    30 1   
    22    14    15 ar  
    23    14    19 ar  
    24    15    16 ar  
    25    15    31 1   
    26    16    17 ar  
    27    16    32 1   
    28    17    18 ar  
    29    17    33 1   
    30    18    19 ar  
    31    19    34 1   
    32    20    21 ar  
    33    20    25 ar  
    34    21    22 ar  
    35    21    36 1   
    36    22    23 ar  
    37    22    37 1   
    38    23    24 ar  
    39    23    38 1   
    40    24    25 ar  
    41    24    39 1   
    42    25    40 1   
@<TRIPOS>SUBSTRUCTURE
     1 FD8         1 TEMP              0 ****  ****    0 ROOT
