@<TRIPOS>MOLECULE
FD8
   40    42     1     0     0
SMALL
No Charge or Current Charge


@<TRIPOS>ATOM
      1 N           -2.3520    -1.1610     0.5570 ns         1 FD8      -0.138000
      2 F1          -6.4290     2.6160    -0.3350 f          1 FD8      -0.106667
      3 O1          -2.6320     0.5490    -0.9510 o          1 FD8      -0.542100
      4 C2          -5.6330     0.3350    -0.4290 ca         1 FD8      -0.153300
      5 F2          -4.8250     2.1940    -1.7220 f          1 FD8      -0.106667
      6 O2           2.1780     0.6670     0.3180 os         1 FD8      -0.218200
      7 C3          -4.6090    -0.6570    -0.2660 ca         1 FD8      -0.108600
      8 F3          -4.4460     2.2510     0.4280 f          1 FD8      -0.106667
      9 C4          -4.9960    -2.0170    -0.1310 ca         1 FD8      -0.097000
     10 C5          -6.3430    -2.4000    -0.1710 ca         1 FD8      -0.084000
     11 C6          -7.3370    -1.4340    -0.3500 ca         1 FD8      -0.098000
     12 C7          -6.9870    -0.0830    -0.4780 ca         1 FD8      -0.066000
     13 C8          -3.1190    -0.3290    -0.2500 c          1 FD8       0.616700
     14 C9          -0.9600    -1.2050     0.8400 ca         1 FD8       0.013000
     15 C10         -0.4840    -2.2950     1.5920 ca         1 FD8      -0.189000
     16 C11          0.8780    -2.4040     1.9200 ca         1 FD8      -0.047000
     17 C12          1.7810    -1.4190     1.4950 ca         1 FD8      -0.201000
     18 C13          1.3200    -0.3250     0.7390 ca         1 FD8       0.149100
     19 C14         -0.0430    -0.2140     0.4220 ca         1 FD8      -0.149000
     20 C15          3.5190     0.4430     0.0800 ca         1 FD8       0.045100
     21 C16          3.9390    -0.5240    -0.8620 ca         1 FD8       0.164000
     22 C17          5.3110    -0.7330    -1.0950 ca         1 FD8       0.102500
     23 C18          6.2680     0.0250    -0.3960 ca         1 FD8       0.143000
     24 C19          5.8550     0.9960     0.5350 ca         1 FD8       0.102500
     25 C20          4.4830     1.2060     0.7690 ca         1 FD8       0.164000
     26 HN          -2.8880    -1.8590     1.0550 hn         1 FD8       0.158000
     27 H4          -4.2500    -2.8010    -0.0240 ha         1 FD8       0.127000
     28 H5          -6.6150    -3.4490    -0.0750 ha         1 FD8       0.125000
     29 H6          -8.3830    -1.7310    -0.3880 ha         1 FD8       0.126000
     30 H7          -7.7890     0.6390    -0.6110 ha         1 FD8       0.137000
     31 H10         -1.1740    -3.0660     1.9290 ha         1 FD8       0.115000
     32 H11          1.2300    -3.2510     2.5060 ha         1 FD8       0.118000
     33 H12          2.8310    -1.5060     1.7640 ha         1 FD8       0.123000
     34 H14         -0.3630     0.6540    -0.1440 ha         1 FD8       0.168000
     35 C1          -5.3290     1.8490    -0.5160 c3         1 FD8       0.357300
     36 F4           3.0250    -1.2460    -1.5550 f          1 FD8      -0.126500
     37 F5           5.7110    -1.6610    -1.9970 f          1 FD8      -0.130500
     38 F6           7.5880    -0.1770    -0.6220 f          1 FD8      -0.128000
     39 F7           6.7770     1.7280     1.2040 f          1 FD8      -0.130500
     40 F8           4.0880     2.1410     1.6650 f          1 FD8      -0.126500
@<TRIPOS>BOND
     1     1    13 1   
     2     1    14 1   
     3     1    26 1   
     4     2    35 1   
     5     3    13 2   
     6     4     7 ar  
     7     4    12 ar  
     8     4    35 1   
     9     5    35 1   
    10     6    18 1   
    11     6    20 1   
    12     7     9 ar  
    13     7    13 1   
    14     8    35 1   
    15     9    10 ar  
    16     9    27 1   
    17    10    11 ar  
    18    10    28 1   
    19    11    12 ar  
    20    11    29 1   
    21    12    30 1   
    22    14    15 ar  
    23    14    19 ar  
    24    15    16 ar  
    25    15    31 1   
    26    16    17 ar  
    27    16    32 1   
    28    17    18 ar  
    29    17    33 1   
    30    18    19 ar  
    31    19    34 1   
    32    20    21 ar  
    33    20    25 ar  
    34    21    22 ar  
    35    21    36 1   
    36    22    23 ar  
    37    22    37 1   
    38    23    24 ar  
    39    23    38 1   
    40    24    25 ar  
    41    24    39 1   
    42    25    40 1   
@<TRIPOS>SUBSTRUCTURE
     1 FD8         1 TEMP              0 ****  ****    0 ROOT
