@<TRIPOS>MOLECULE
FD9
   59    63     1     0     0
SMALL
bcc


@<TRIPOS>ATOM
      1 N4           0.5370     2.8860     1.6980 n1         1 FD9      -0.389800
      2 C25          1.3050     2.0710     1.4170 cg         1 FD9       0.239500
      3 C7           2.2150     1.0570     1.0660 cc         1 FD9      -0.078900
      4 C6           3.5890     1.1400     1.1340 cd         1 FD9      -0.040100
      5 C8           1.8970    -0.2470     0.5680 ca         1 FD9      -0.029800
      6 C13          0.6930    -0.8950     0.2820 ca         1 FD9      -0.159000
      7 C12          0.7590    -2.1830    -0.2120 ca         1 FD9       0.120100
      8 C11          1.9920    -2.8270    -0.4180 ca         1 FD9      -0.134000
      9 C10          3.1820    -2.1950    -0.1300 ca         1 FD9      -0.110000
     10 C9           3.1250    -0.8930     0.3620 ca         1 FD9      -0.087200
     11 N1           4.1320    -0.0200     0.7170 na         1 FD9      -0.043400
     12 C5           5.5630    -0.2770     0.6460 c3         1 FD9       0.133600
     13 C2           6.2540     0.6990    -0.2370 cc         1 FD9      -0.404900
     14 C3           7.2000     1.6180     0.0790 cd         1 FD9       0.326000
     15 C4           7.8730     1.9840     1.3450 c3         1 FD9      -0.143400
     16 O            7.5460     2.2820    -1.0260 os         1 FD9      -0.113100
     17 N            6.8290     1.8190    -2.0940 nd         1 FD9      -0.355300
     18 C1           6.0580     0.8790    -1.6360 cc         1 FD9       0.365600
     19 C            5.1130     0.1430    -2.5160 c3         1 FD9      -0.138400
     20 O1          -0.3450    -2.9260    -0.5160 os         1 FD9      -0.250200
     21 C14         -1.5590    -2.2910    -0.6080 ca         1 FD9       0.061100
     22 C19         -2.5000    -2.4700     0.3890 ca         1 FD9      -0.106500
     23 C18         -3.7460    -1.8610     0.3020 ca         1 FD9      -0.163000
     24 C17         -4.0490    -1.0470    -0.7900 ca         1 FD9       0.080600
     25 C16         -3.0890    -0.8840    -1.7940 ca         1 FD9      -0.163000
     26 C15         -1.8550    -1.4990    -1.7090 ca         1 FD9      -0.106500
     27 N2          -5.2570    -0.3680    -0.9590 ns         1 FD9      -0.480100
     28 C20         -6.3300    -0.2820    -0.1280 c          1 FD9       0.680100
     29 O2          -6.4360    -0.8940     0.9170 o          1 FD9      -0.547100
     30 C21         -7.3670     0.7220    -0.6080 c5         1 FD9       0.073500
     31 N3          -8.6540     0.4990     0.0310 n7         1 FD9      -0.760200
     32 C24         -8.8100     1.5450     1.0360 c5         1 FD9       0.140800
     33 C23         -8.1220     2.7740     0.4460 c5         1 FD9      -0.115400
     34 C22         -6.8960     2.1610    -0.2260 c5         1 FD9      -0.101400
     35 H6           4.2000     1.9670     1.4580 h4         1 FD9       0.174000
     36 H13         -0.2510    -0.3930     0.4490 ha         1 FD9       0.158000
     37 H11          1.9990    -3.8360    -0.8080 ha         1 FD9       0.149000
     38 H10          4.1200    -2.7090    -0.2930 ha         1 FD9       0.135000
     39 H51C         5.9820    -0.2590     1.6530 h1         1 FD9       0.067700
     40 H52C         5.7000    -1.2940     0.2770 h1         1 FD9       0.067700
     41 H41C         8.9400     1.7600     1.3040 hc         1 FD9       0.067033
     42 H42C         7.7630     3.0490     1.5540 hc         1 FD9       0.067033
     43 H43C         7.4450     1.4300     2.1770 hc         1 FD9       0.067033
     44 HC1          4.0800     0.3820    -2.2590 hc         1 FD9       0.062033
     45 HC2          5.2710     0.3960    -3.5620 hc         1 FD9       0.062033
     46 HC3          5.2350    -0.9340    -2.4000 hc         1 FD9       0.062033
     47 H19         -2.2700    -3.0920     1.2440 ha         1 FD9       0.147000
     48 H15         -1.1260    -1.3590    -2.4970 ha         1 FD9       0.147000
     49 H18         -4.4630    -2.0200     1.0900 ha         1 FD9       0.150500
     50 H16         -3.3110    -0.2630    -2.6540 ha         1 FD9       0.150500
     51 H2          -5.3140     0.1790    -1.8060 hn         1 FD9       0.312500
     52 H21         -7.4740     0.6310    -1.6930 h1         1 FD9       0.054700
     53 H3          -9.3790     0.6090    -0.6650 hn         1 FD9       0.350800
     54 H221        -6.0620     2.1270     0.4800 hc         1 FD9       0.056700
     55 H222        -6.5540     2.7180    -1.0980 hc         1 FD9       0.056700
     56 H241        -9.8640     1.6990     1.2660 h1         1 FD9       0.064700
     57 H242        -8.3120     1.2430     1.9610 h1         1 FD9       0.064700
     58 H231        -8.7740     3.2480    -0.2920 hc         1 FD9       0.051700
     59 H232        -7.8630     3.5260     1.1930 hc         1 FD9       0.051700
@<TRIPOS>BOND
     1     1     2 3   
     2     2     3 1   
     3     3     4 2   
     4     3     5 1   
     5     4    11 1   
     6     4    35 1   
     7     5     6 ar  
     8     5    10 ar  
     9     6     7 ar  
    10     6    36 1   
    11     7     8 ar  
    12     7    20 1   
    13     8     9 ar  
    14     8    37 1   
    15     9    10 ar  
    16     9    38 1   
    17    10    11 1   
    18    11    12 1   
    19    12    13 1   
    20    12    39 1   
    21    12    40 1   
    22    13    14 2   
    23    13    18 1   
    24    14    15 1   
    25    14    16 1   
    26    15    41 1   
    27    15    42 1   
    28    15    43 1   
    29    16    17 1   
    30    17    18 2   
    31    18    19 1   
    32    19    44 1   
    33    19    45 1   
    34    19    46 1   
    35    20    21 1   
    36    21    22 ar  
    37    21    26 ar  
    38    22    23 ar  
    39    22    47 1   
    40    23    24 ar  
    41    23    49 1   
    42    24    25 ar  
    43    24    27 1   
    44    25    26 ar  
    45    25    50 1   
    46    26    48 1   
    47    27    28 1   
    48    27    51 1   
    49    28    29 2   
    50    28    30 1   
    51    30    31 1   
    52    30    34 1   
    53    30    52 1   
    54    31    32 1   
    55    31    53 1   
    56    32    33 1   
    57    32    56 1   
    58    32    57 1   
    59    33    34 1   
    60    33    58 1   
    61    33    59 1   
    62    34    54 1   
    63    34    55 1   
@<TRIPOS>SUBSTRUCTURE
     1 FD9         1 TEMP              0 ****  ****    0 ROOT
