@<TRIPOS>MOLECULE
FD9
   59    63     1     0     0
SMALL
No Charge or Current Charge


@<TRIPOS>ATOM
      1 N4           1.3960     2.7290     2.9020 n1         1 FD9      -0.479000
      2 C25          2.0140     1.9090     2.3460 cg         1 FD9       0.328700
      3 C7           2.7960     0.9270     1.6750 cc         1 FD9      -0.078900
      4 C6           4.1660     0.9970     1.4460 cd         1 FD9      -0.090100
      5 C8           2.3480    -0.3060     1.0920 ca         1 FD9      -0.029800
      6 C13          1.0610    -0.8600     1.0360 ca         1 FD9      -0.141000
      7 C12          0.9040    -2.1020     0.3830 ca         1 FD9       0.120100
      8 C11          2.0250    -2.7610    -0.1680 ca         1 FD9      -0.116000
      9 C10          3.3080    -2.1790    -0.0940 ca         1 FD9      -0.092000
     10 C9           3.4370    -0.9330     0.5470 ca         1 FD9      -0.087200
     11 N1           4.5760    -0.1590     0.7450 na         1 FD9      -0.072700
     12 C5           5.9200    -0.4680     0.2260 c3         1 FD9       0.162900
     13 C2           6.4130     0.5730    -0.7460 cc         1 FD9      -0.274300
     14 C3           7.3850     1.5090    -0.6010 cd         1 FD9       0.216300
     15 C4           8.2800     1.8090     0.5670 c3         1 FD9      -0.143400
     16 O            7.4980     2.2560    -1.7430 os         1 FD9      -0.068700
     17 N            6.5330     1.7760    -2.6930 nd         1 FD9      -0.355300
     18 C1           5.9270     0.7900    -2.0530 cc         1 FD9       0.300300
     19 C            4.8190    -0.0180    -2.6660 c3         1 FD9      -0.138400
     20 O1          -0.3310    -2.7060     0.3000 os         1 FD9      -0.250200
     21 C14         -1.4960    -2.0010     0.0950 ca         1 FD9       0.061100
     22 C19         -2.6660    -2.4110     0.7530 ca         1 FD9      -0.088500
     23 C18         -3.8730    -1.7170     0.5540 ca         1 FD9      -0.145000
     24 C17         -3.9220    -0.6050    -0.3160 ca         1 FD9      -0.012000
     25 C16         -2.7450    -0.2080    -0.9820 ca         1 FD9      -0.145000
     26 C15         -1.5390    -0.9020    -0.7840 ca         1 FD9      -0.088500
     27 N2          -5.1020     0.1480    -0.5660 ns         1 FD9      -0.154000
     28 C20         -6.4090     0.0220    -0.1050 c          1 FD9       0.613100
     29 O2          -6.8070    -0.8530     0.6610 o          1 FD9      -0.547100
     30 C21         -7.2770     1.1820    -0.7420 c5         1 FD9       0.073500
     31 N3          -8.5100     0.7260    -1.4790 n7         1 FD9      -0.815400
     32 C24         -9.5930     0.8080    -0.4780 c5         1 FD9       0.140800
     33 C23         -9.3300     2.1980     0.1340 c5         1 FD9      -0.115400
     34 C22         -7.8030     2.1160     0.4040 c5         1 FD9      -0.101400
     35 H6           4.8680     1.7790     1.7200 h4         1 FD9       0.224000
     36 H13          0.2140    -0.3480     1.4840 ha         1 FD9       0.140000
     37 H11          1.8950    -3.7230    -0.6580 ha         1 FD9       0.131000
     38 H10          4.1620    -2.6930    -0.5260 ha         1 FD9       0.117000
     39 H51C         6.6090    -0.5270     1.0780 h1         1 FD9       0.067700
     40 H52C         5.9230    -1.4490    -0.2600 h1         1 FD9       0.067700
     41 H41C         8.9470     0.9640     0.7720 hc         1 FD9       0.067033
     42 H42C         8.9020     2.6910     0.3750 hc         1 FD9       0.067033
     43 H43C         7.6910     2.0030     1.4700 hc         1 FD9       0.067033
     44 HC1          3.8660     0.1890    -2.1660 hc         1 FD9       0.062033
     45 HC2          4.6980     0.2170    -3.7300 hc         1 FD9       0.062033
     46 HC3          5.0240    -1.0910    -2.5820 hc         1 FD9       0.062033
     47 H19         -2.6360    -3.2670     1.4230 ha         1 FD9       0.129000
     48 H15         -0.6430    -0.5880    -1.3140 ha         1 FD9       0.129000
     49 H18         -4.7540    -2.0600     1.0860 ha         1 FD9       0.132500
     50 H16         -2.7640     0.6420    -1.6610 ha         1 FD9       0.132500
     51 H2          -4.9620     0.9240    -1.2000 hn         1 FD9       0.146000
     52 H21         -6.6380     1.7500    -1.4330 h1         1 FD9       0.054700
     53 H3          -8.7210     1.4120    -2.2150 hn         1 FD9       0.406000
     54 H221        -7.6100     1.6940     1.3980 hc         1 FD9       0.056700
     55 H222        -7.3280     3.1040     0.3840 hc         1 FD9       0.056700
     56 H241       -10.5900     0.7330    -0.9370 h1         1 FD9       0.064700
     57 H242        -9.5040     0.0120     0.2770 h1         1 FD9       0.064700
     58 H231        -9.5740     3.0000    -0.5730 hc         1 FD9       0.051700
     59 H232        -9.9120     2.3740     1.0460 hc         1 FD9       0.051700
@<TRIPOS>BOND
     1     1     2 3   
     2     2     3 1   
     3     3     4 2   
     4     3     5 1   
     5     4    11 1   
     6     4    35 1   
     7     5     6 ar  
     8     5    10 ar  
     9     6     7 ar  
    10     6    36 1   
    11     7     8 ar  
    12     7    20 1   
    13     8     9 ar  
    14     8    37 1   
    15     9    10 ar  
    16     9    38 1   
    17    10    11 1   
    18    11    12 1   
    19    12    13 1   
    20    12    39 1   
    21    12    40 1   
    22    13    14 2   
    23    13    18 1   
    24    14    15 1   
    25    14    16 1   
    26    15    41 1   
    27    15    42 1   
    28    15    43 1   
    29    16    17 1   
    30    17    18 2   
    31    18    19 1   
    32    19    44 1   
    33    19    45 1   
    34    19    46 1   
    35    20    21 1   
    36    21    22 ar  
    37    21    26 ar  
    38    22    23 ar  
    39    22    47 1   
    40    23    24 ar  
    41    23    49 1   
    42    24    25 ar  
    43    24    27 1   
    44    25    26 ar  
    45    25    50 1   
    46    26    48 1   
    47    27    28 1   
    48    27    51 1   
    49    28    29 2   
    50    28    30 1   
    51    30    31 1   
    52    30    34 1   
    53    30    52 1   
    54    31    32 1   
    55    31    53 1   
    56    32    33 1   
    57    32    56 1   
    58    32    57 1   
    59    33    34 1   
    60    33    58 1   
    61    33    59 1   
    62    34    54 1   
    63    34    55 1   
@<TRIPOS>SUBSTRUCTURE
     1 FD9         1 TEMP              0 ****  ****    0 ROOT
