@<TRIPOS>MOLECULE
FDA
   86    91     1     0     0
SMALL
bcc


@<TRIPOS>ATOM
      1 PA          -2.1320    -1.4040    -3.5650 p5         1 FDA       1.462800
      2 O1A         -1.3330    -2.2520    -4.5090 o          1 FDA      -0.852500
      3 O2A         -3.5060    -1.8290    -3.1560 o          1 FDA      -0.852500
      4 O5B         -2.1860     0.1420    -4.1300 os         1 FDA      -0.533200
      5 C5B         -2.8580     0.3540    -5.3480 c3         1 FDA       0.190400
      6 C4B         -2.2850     1.5920    -6.0130 c5         1 FDA       0.135100
      7 O4B         -0.8630     1.4940    -6.1410 os         1 FDA      -0.361600
      8 C3B         -2.8130     1.7670    -7.4280 c5         1 FDA       0.074100
      9 O3B         -2.7620     3.1280    -7.7700 oh         1 FDA      -0.591800
     10 C2B         -1.7820     0.9630    -8.2260 c5         1 FDA       0.045100
     11 O2B         -1.6590     1.3300    -9.5670 oh         1 FDA      -0.583800
     12 C1B         -0.4940     1.3010    -7.4730 c5         1 FDA       0.272800
     13 N9A          0.5130     0.2680    -7.5430 na         1 FDA      -0.266000
     14 C8A          0.5400    -0.9220    -6.8630 cc         1 FDA       0.467700
     15 N7A          1.5730    -1.6550    -7.1630 nd         1 FDA      -0.559100
     16 C5A          2.2650    -0.9180    -8.0880 ca         1 FDA      -0.210200
     17 C6A          3.4590    -1.1450    -8.7950 ca         1 FDA       0.763200
     18 N6A          4.1780    -2.2600    -8.6570 nv         1 FDA      -0.970500
     19 N1A          3.8810    -0.1950    -9.6380 nb         1 FDA      -0.856000
     20 C2A          3.1610     0.9160    -9.7720 ca         1 FDA       0.670900
     21 N3A          2.0300     1.2400    -9.1720 nb         1 FDA      -0.738000
     22 C4A          1.6230     0.2860    -8.3370 ca         1 FDA       0.432800
     23 N1           2.8950    -0.6850     7.0950 ns         1 FDA      -0.459100
     24 C2           4.2040    -0.2930     7.0730 c          1 FDA       0.834500
     25 O2           5.1240    -1.0680     6.9030 o          1 FDA      -0.635500
     26 N3           4.3840     1.0510     7.2670 ns         1 FDA      -0.598500
     27 C4           3.4040     2.0040     7.4910 c          1 FDA       0.746100
     28 O4           3.6940     3.1780     7.6630 o          1 FDA      -0.628500
     29 C4X          2.0630     1.4970     7.4660 cc         1 FDA      -0.243900
     30 N5           0.9850     2.3790     7.6130 na         1 FDA      -0.188100
     31 C5X         -0.2020     1.8190     8.0740 ca         1 FDA       0.038700
     32 C6          -1.1840     2.5910     8.6810 ca         1 FDA      -0.173000
     33 C7          -2.3760     2.0370     9.1380 ca         1 FDA      -0.052300
     34 C7M         -3.4190     2.9120     9.7700 c3         1 FDA      -0.042800
     35 C8          -2.5820     0.6610     9.0070 ca         1 FDA      -0.103300
     36 C8M         -3.8460     0.0180     9.5000 c3         1 FDA      -0.035800
     37 C9          -1.5820    -0.1110     8.4200 ca         1 FDA      -0.110000
     38 C9A         -0.4130     0.4470     7.9290 ca         1 FDA      -0.006300
     39 C10          1.8430     0.1720     7.2940 cd         1 FDA       0.179300
     40 C1           0.1930    -1.2700     6.2350 c3         1 FDA      -0.004700
     41 C11          0.2440    -0.6050     4.8560 c3         1 FDA       0.089100
     42 O6          -0.4540     0.6090     4.8530 oh         1 FDA      -0.564800
     43 C3          -0.2070    -1.6140     3.7820 c3         1 FDA       0.074100
     44 O3           0.7460    -2.6520     3.6960 oh         1 FDA      -0.595800
     45 C12         -0.5210    -0.9570     2.4240 c3         1 FDA       0.112100
     46 O7          -1.7570    -0.2800     2.4830 oh         1 FDA      -0.576800
     47 C5          -0.5020    -1.9820     1.2970 c3         1 FDA       0.180400
     48 O5          -0.8780    -1.3350     0.0990 os         1 FDA      -0.542200
     49 P           -0.4500    -2.0730    -1.3070 p5         1 FDA       1.451800
     50 O1P          1.0250    -1.9260    -1.5120 o          1 FDA      -0.846500
     51 O2P         -1.0990    -3.4190    -1.3950 o          1 FDA      -0.846500
     52 O3P         -1.2340    -0.9900    -2.2590 os         1 FDA      -0.683800
     53 H51A        -2.7650    -0.5120    -6.0160 h1         1 FDA       0.010700
     54 H52A        -3.9300     0.5170    -5.1870 h1         1 FDA       0.010700
     55 H4B         -2.5070     2.4680    -5.3970 h1         1 FDA       0.094700
     56 H3B         -3.8270     1.3590    -7.5420 h1         1 FDA       0.048700
     57 HO3A        -2.7440     3.1910    -8.7330 ho         1 FDA       0.402000
     58 H2B         -1.9980    -0.1070    -8.1200 h1         1 FDA       0.072700
     59 HO2A        -2.3390     0.8770   -10.0760 ho         1 FDA       0.398000
     60 H1B         -0.0370     2.2020    -7.8990 h2         1 FDA       0.094700
     61 H8A         -0.2140    -1.1960    -6.1350 h5         1 FDA       0.154800
     62 H61A         5.0270    -2.3860    -9.1800 hn         1 FDA       0.443300
     63 H62A         3.8850    -2.9950    -8.0370 hn         1 FDA       0.443300
     64 H2A          3.5600     1.6470   -10.4680 h5         1 FDA       0.021100
     65 HN1          2.7260    -1.6810     7.0630 hn         1 FDA       0.355500
     66 HN3          5.3430     1.3760     7.2640 hn         1 FDA       0.342500
     67 HN5          1.2350     3.2640     8.0310 hn         1 FDA       0.270700
     68 H6          -1.0150     3.6570     8.7900 ha         1 FDA       0.132000
     69 HM71        -4.3370     2.9320     9.1790 hc         1 FDA       0.037700
     70 HM72        -3.6940     2.5550    10.7640 hc         1 FDA       0.037700
     71 HM73        -3.0700     3.9390     9.8700 hc         1 FDA       0.037700
     72 HM81        -3.9810     0.1630    10.5740 hc         1 FDA       0.036700
     73 HM82        -4.7300     0.4380     9.0140 hc         1 FDA       0.036700
     74 HM83        -3.8460    -1.0540     9.3100 hc         1 FDA       0.036700
     75 H9          -1.7300    -1.1820     8.3380 ha         1 FDA       0.134000
     76 H1'1         0.8160    -2.1660     6.2470 h1         1 FDA       0.062200
     77 H1'2        -0.8200    -1.6170     6.4420 h1         1 FDA       0.062200
     78 H2           1.2840    -0.3350     4.6280 h1         1 FDA       0.071700
     79 HO2         -1.4010     0.4340     4.8250 ho         1 FDA       0.413000
     80 H3          -1.1290    -2.1060     4.1200 h1         1 FDA       0.056700
     81 HO3          1.5900    -2.2820     3.4120 ho         1 FDA       0.410000
     82 H4           0.2300    -0.1900     2.2030 h1         1 FDA       0.090700
     83 HO4         -2.4620    -0.9350     2.5390 ho         1 FDA       0.395000
     84 H5'1         0.4970    -2.4180     1.2160 h1         1 FDA       0.020200
     85 H5'2        -1.1960    -2.8030     1.5250 h1         1 FDA       0.020200
     86 N10          0.5790    -0.3690     7.3180 na         1 FDA      -0.160100
@<TRIPOS>BOND
     1     1     2 1   
     2     1     3 1   
     3     1     4 1   
     4     1    52 1   
     5     4     5 1   
     6     5     6 1   
     7     5    53 1   
     8     5    54 1   
     9     6     7 1   
    10     6     8 1   
    11     6    55 1   
    12     7    12 1   
    13     8     9 1   
    14     8    10 1   
    15     8    56 1   
    16     9    57 1   
    17    10    11 1   
    18    10    12 1   
    19    10    58 1   
    20    11    59 1   
    21    12    13 1   
    22    12    60 1   
    23    13    14 1   
    24    13    22 1   
    25    14    15 2   
    26    14    61 1   
    27    15    16 1   
    28    16    17 ar  
    29    16    22 ar  
    30    17    18 1   
    31    17    19 ar  
    32    18    62 1   
    33    18    63 1   
    34    19    20 ar  
    35    20    21 ar  
    36    20    64 1   
    37    21    22 ar  
    38    23    24 1   
    39    23    39 1   
    40    23    65 1   
    41    24    25 2   
    42    24    26 1   
    43    26    27 1   
    44    26    66 1   
    45    27    28 2   
    46    27    29 1   
    47    29    30 1   
    48    29    39 2   
    49    30    31 1   
    50    30    67 1   
    51    31    32 ar  
    52    31    38 ar  
    53    32    33 ar  
    54    32    68 1   
    55    33    34 1   
    56    33    35 ar  
    57    34    69 1   
    58    34    70 1   
    59    34    71 1   
    60    35    36 1   
    61    35    37 ar  
    62    36    72 1   
    63    36    73 1   
    64    36    74 1   
    65    37    38 ar  
    66    37    75 1   
    67    38    86 1   
    68    39    86 1   
    69    40    41 1   
    70    40    76 1   
    71    40    77 1   
    72    40    86 1   
    73    41    42 1   
    74    41    43 1   
    75    41    78 1   
    76    42    79 1   
    77    43    44 1   
    78    43    45 1   
    79    43    80 1   
    80    44    81 1   
    81    45    46 1   
    82    45    47 1   
    83    45    82 1   
    84    46    83 1   
    85    47    48 1   
    86    47    84 1   
    87    47    85 1   
    88    48    49 1   
    89    49    50 1   
    90    49    51 1   
    91    49    52 1   
@<TRIPOS>SUBSTRUCTURE
     1 FDA         1 TEMP              0 ****  ****    0 ROOT
