@<TRIPOS>MOLECULE
FDA
   86    91     1     0     0
SMALL
No Charge or Current Charge


@<TRIPOS>ATOM
      1 PA           0.4970    -1.7520    -2.6440 p5         1 FDA       1.462800
      2 O1A          1.9220    -2.1390    -2.8630 o          1 FDA      -0.852500
      3 O2A         -0.3360    -1.8680    -3.8760 o          1 FDA      -0.852500
      4 O5B          0.4460    -0.2570    -2.0440 os         1 FDA      -0.556400
      5 C5B         -0.7710     0.5050    -2.0850 c3         1 FDA       0.213600
      6 C4B         -0.7300     1.5980    -3.2050 c5         1 FDA       0.158300
      7 O4B          0.2030     1.2570    -4.2740 os         1 FDA      -0.408000
      8 C3B         -2.1180     1.8500    -3.8960 c5         1 FDA       0.097300
      9 O3B         -2.3040     3.2140    -4.3030 oh         1 FDA      -0.714000
     10 C2B         -1.9770     0.9300    -5.1400 c5         1 FDA       0.068300
     11 O2B         -2.9550     1.2410    -6.1550 oh         1 FDA      -0.706000
     12 C1B         -0.5040     1.2860    -5.5290 c5         1 FDA       0.325300
     13 N9A          0.1840     0.4410    -6.5040 na         1 FDA      -0.295300
     14 C8A         -0.1380    -0.8850    -6.8170 cc         1 FDA       0.467700
     15 N7A          0.6460    -1.3560    -7.8120 nd         1 FDA      -0.559100
     16 C5A          1.4810    -0.2740    -8.1050 ca         1 FDA      -0.079600
     17 C6A          2.5150    -0.1680    -9.0600 ca         1 FDA       0.434900
     18 N6A          2.8650    -1.1880    -9.8880 nv         1 FDA      -1.080900
     19 N1A          3.2220     0.9650    -9.1950 nb         1 FDA      -0.330000
     20 C2A          2.8770     1.9840    -8.3710 ca         1 FDA       0.144900
     21 N3A          1.9010     1.9720    -7.4320 nb         1 FDA      -0.212000
     22 C4A          1.2130     0.8180    -7.3180 ca         1 FDA       0.104500
     23 N1           2.3750    -0.3890     5.7280 ns         1 FDA      -0.505600
     24 C2           3.7000    -0.1210     5.5820 c          1 FDA       0.625000
     25 O2           4.5380    -0.9970     5.5040 o          1 FDA      -0.560000
     26 N3           4.0050     1.1960     5.5240 ns         1 FDA      -0.464500
     27 C4           3.1570     2.2550     5.6050 c          1 FDA       0.603600
     28 O4           3.5660     3.4030     5.5300 o          1 FDA      -0.553000
     29 C4X          1.7350     1.8990     5.7900 cc         1 FDA      -0.294600
     30 N5           0.6940     2.8390     5.8790 na         1 FDA      -0.137000
     31 C5X         -0.4950     2.4420     6.4630 ca         1 FDA      -0.012000
     32 C6          -1.3310     3.4000     7.0610 ca         1 FDA      -0.155000
     33 C7          -2.5040     3.0080     7.7330 ca         1 FDA      -0.052300
     34 C7M         -3.3900     4.0710     8.3760 c3         1 FDA      -0.042800
     35 C8          -2.8260     1.6340     7.8160 ca         1 FDA      -0.103300
     36 C8M         -4.0730     1.1590     8.5570 c3         1 FDA      -0.035800
     37 C9          -1.9810     0.6850     7.2070 ca         1 FDA      -0.092000
     38 C9A         -0.8220     1.0860     6.5040 ca         1 FDA      -0.057000
     39 C10          1.3700     0.5460     5.8420 cd         1 FDA       0.128600
     40 C1          -0.5190    -1.0950     5.2690 c3         1 FDA       0.024600
     41 C11         -0.2580    -1.2450     3.7430 c3         1 FDA       0.112300
     42 O6          -0.9620    -0.2110     3.0390 oh         1 FDA      -0.687000
     43 C3          -0.7070    -2.6400     3.1870 c3         1 FDA       0.097300
     44 O3           0.0000    -3.6870     3.8820 oh         1 FDA      -0.658000
     45 C12         -0.5230    -2.8110     1.6380 c3         1 FDA       0.135300
     46 O7          -1.2220    -1.7640     0.9260 oh         1 FDA      -0.699000
     47 C5          -1.0170    -4.2130     1.1430 c3         1 FDA       0.203600
     48 O5          -1.1030    -4.3080    -0.2970 os         1 FDA      -0.565400
     49 P            0.1210    -3.9770    -1.2940 p5         1 FDA       1.451800
     50 O1P          1.4170    -4.2910    -0.6250 o          1 FDA      -0.846500
     51 O2P         -0.0790    -4.7310    -2.5660 o          1 FDA      -0.846500
     52 O3P         -0.1790    -2.4310    -1.3910 os         1 FDA      -0.683800
     53 H51A        -1.6330    -0.1540    -2.2570 h1         1 FDA       0.010700
     54 H52A        -0.9380     0.9990    -1.1190 h1         1 FDA       0.010700
     55 H4B         -0.3740     2.5230    -2.7310 h1         1 FDA       0.094700
     56 H3B         -2.9520     1.5310    -3.2540 h1         1 FDA       0.048700
     57 HO3A        -2.8000     3.1520    -5.1560 ho         1 FDA       0.501000
     58 H2B         -2.0530    -0.1240    -4.8420 h1         1 FDA       0.072700
     59 HO2A        -3.7680     0.7150    -5.9610 ho         1 FDA       0.497000
     60 H1B         -0.4710     2.3050    -5.9370 h2         1 FDA       0.094700
     61 H8A         -0.9310    -1.4320    -6.3180 h5         1 FDA       0.154800
     62 H61A         3.7800    -1.1490   -10.3300 hn         1 FDA       0.498500
     63 H62A         2.5050    -2.1130    -9.6610 hn         1 FDA       0.498500
     64 H2A          3.4440     2.9080    -8.4730 h5         1 FDA       0.021100
     65 HN1          2.1660    -1.3780     5.7760 hn         1 FDA       0.469000
     66 HN3          4.9800     1.4180     5.4070 hn         1 FDA       0.342500
     67 HN5          0.8640     3.8210     5.6870 hn         1 FDA       0.321000
     68 H6          -1.0600     4.4520     7.0180 ha         1 FDA       0.114000
     69 HM71        -4.4070     4.0380     7.9670 hc         1 FDA       0.037700
     70 HM72        -3.4570     3.9260     9.4610 hc         1 FDA       0.037700
     71 HM73        -3.0030     5.0830     8.2060 hc         1 FDA       0.037700
     72 HM81        -4.0450     1.4590     9.6110 hc         1 FDA       0.036700
     73 HM82        -4.9820     1.5790     8.1100 hc         1 FDA       0.036700
     74 HM83        -4.1730     0.0670     8.5320 hc         1 FDA       0.036700
     75 H9          -2.2320    -0.3690     7.2930 ha         1 FDA       0.116000
     76 H1'1        -0.0680    -1.9350     5.8090 h1         1 FDA       0.062200
     77 H1'2        -1.6020    -1.1570     5.4210 h1         1 FDA       0.062200
     78 H2           0.8200    -1.1430     3.5590 h1         1 FDA       0.071700
     79 HO2         -1.1660    -0.6160     2.1480 ho         1 FDA       0.512000
     80 H3          -1.7810    -2.7420     3.3980 h1         1 FDA       0.056700
     81 HO3          0.9450    -3.6550     3.6130 ho         1 FDA       0.449000
     82 H4           0.5540    -2.7400     1.4260 h1         1 FDA       0.090700
     83 HO4         -1.0030    -1.9260    -0.0360 ho         1 FDA       0.494000
     84 H5'1        -0.3430    -4.9900     1.5270 h1         1 FDA       0.020200
     85 H5'2        -2.0070    -4.4070     1.5760 h1         1 FDA       0.020200
     86 N10          0.0110     0.1650     5.8520 na         1 FDA      -0.088000
@<TRIPOS>BOND
     1     1     2 1   
     2     1     3 1   
     3     1     4 1   
     4     1    52 1   
     5     4     5 1   
     6     5     6 1   
     7     5    53 1   
     8     5    54 1   
     9     6     7 1   
    10     6     8 1   
    11     6    55 1   
    12     7    12 1   
    13     8     9 1   
    14     8    10 1   
    15     8    56 1   
    16     9    57 1   
    17    10    11 1   
    18    10    12 1   
    19    10    58 1   
    20    11    59 1   
    21    12    13 1   
    22    12    60 1   
    23    13    14 1   
    24    13    22 1   
    25    14    15 2   
    26    14    61 1   
    27    15    16 1   
    28    16    17 ar  
    29    16    22 ar  
    30    17    18 1   
    31    17    19 ar  
    32    18    62 1   
    33    18    63 1   
    34    19    20 ar  
    35    20    21 ar  
    36    20    64 1   
    37    21    22 ar  
    38    23    24 1   
    39    23    39 1   
    40    23    65 1   
    41    24    25 2   
    42    24    26 1   
    43    26    27 1   
    44    26    66 1   
    45    27    28 2   
    46    27    29 1   
    47    29    30 1   
    48    29    39 2   
    49    30    31 1   
    50    30    67 1   
    51    31    32 ar  
    52    31    38 ar  
    53    32    33 ar  
    54    32    68 1   
    55    33    34 1   
    56    33    35 ar  
    57    34    69 1   
    58    34    70 1   
    59    34    71 1   
    60    35    36 1   
    61    35    37 ar  
    62    36    72 1   
    63    36    73 1   
    64    36    74 1   
    65    37    38 ar  
    66    37    75 1   
    67    38    86 1   
    68    39    86 1   
    69    40    41 1   
    70    40    76 1   
    71    40    77 1   
    72    40    86 1   
    73    41    42 1   
    74    41    43 1   
    75    41    78 1   
    76    42    79 1   
    77    43    44 1   
    78    43    45 1   
    79    43    80 1   
    80    44    81 1   
    81    45    46 1   
    82    45    47 1   
    83    45    82 1   
    84    46    83 1   
    85    47    48 1   
    86    47    84 1   
    87    47    85 1   
    88    48    49 1   
    89    49    50 1   
    90    49    51 1   
    91    49    52 1   
@<TRIPOS>SUBSTRUCTURE
     1 FDA         1 TEMP              0 ****  ****    0 ROOT
