@<TRIPOS>MOLECULE
FDB
   20    21     1     0     0
SMALL
abcg2


@<TRIPOS>ATOM
      1 CAA          0.7010   -14.7520    33.0340 c3         1 FDB      -0.020800
      2 NAB         -3.4530    -9.9140    35.1110 nv         1 FDB      -1.033200
      3 OAC         -1.4730   -14.0490    35.5040 o          1 FDB      -0.554000
      4 CAD          0.3800   -12.5630    31.7470 cc         1 FDB      -0.204000
      5 NAE         -1.9880   -10.5220    33.4250 nc         1 FDB      -0.713100
      6 NAF         -0.3760   -11.4010    31.8770 na         1 FDB      -0.117000
      7 NAG         -2.4180   -11.9960    35.2110 ns         1 FDB      -0.455400
      8 CAH          0.1080   -13.4020    32.7940 cd         1 FDB      -0.055300
      9 CAI         -2.6110   -10.8150    34.5420 cd         1 FDB       0.718800
     10 CAJ         -1.5500   -13.0300    34.8110 c          1 FDB       0.619600
     11 CAK         -1.1310   -11.4800    32.9990 cc         1 FDB       0.168400
     12 CAL         -0.8620   -12.7170    33.6060 cd         1 FDB      -0.302600
     13 HAA          1.2240   -14.7930    33.9930 hc         1 FDB       0.045033
     14 HAAA        -0.0690   -15.5270    33.0590 hc         1 FDB       0.045033
     15 HAAB         1.4130   -15.0040    32.2470 hc         1 FDB       0.045033
     16 HNAB        -3.7360    -9.1460    34.5240 hn         1 FDB       0.490500
     17 HNAA        -4.1410   -10.2340    35.7740 hn         1 FDB       0.490500
     18 HAD          1.0490   -12.6900    30.9130 h4         1 FDB       0.150000
     19 HNAF        -0.3620   -10.6170    31.2440 hn         1 FDB       0.359000
     20 HNAG        -2.9250   -12.1620    36.0710 hn         1 FDB       0.322500
@<TRIPOS>BOND
     1     1     8 1   
     2     1    13 1   
     3     1    14 1   
     4     1    15 1   
     5     2     9 1   
     6     2    16 1   
     7     2    17 1   
     8     3    10 2   
     9     4     6 1   
    10     4     8 2   
    11     4    18 1   
    12     5     9 2   
    13     5    11 1   
    14     6    11 1   
    15     6    19 1   
    16     7     9 1   
    17     7    10 1   
    18     7    20 1   
    19     8    12 1   
    20    10    12 1   
    21    11    12 2   
@<TRIPOS>SUBSTRUCTURE
     1 FDB         1 TEMP              0 ****  ****    0 ROOT
