@<TRIPOS>MOLECULE
FDB
   20    21     1     0     0
SMALL
No Charge or Current Charge


@<TRIPOS>ATOM
      1 CAA          0.6230   -14.7130    33.0800 c3         1 FDB      -0.020800
      2 NAB         -3.4150    -9.9970    35.1120 nv         1 FDB      -1.033200
      3 OAC         -1.3940   -14.0480    35.4420 o          1 FDB      -0.554000
      4 CAD          0.3930   -12.5540    31.7070 cc         1 FDB      -0.204000
      5 NAE         -1.9860   -10.4910    33.4790 nc         1 FDB      -0.713100
      6 NAF         -0.3500   -11.3730    31.8380 na         1 FDB      -0.117000
      7 NAG         -2.3870   -12.0250    35.2560 ns         1 FDB      -0.455400
      8 CAH          0.0710   -13.3420    32.7870 cd         1 FDB      -0.055300
      9 CAI         -2.5620   -10.8660    34.5940 cd         1 FDB       0.718800
     10 CAJ         -1.5480   -13.0020    34.8310 c          1 FDB       0.619600
     11 CAK         -1.1200   -11.4330    32.9840 cc         1 FDB       0.168400
     12 CAL         -0.8720   -12.6340    33.5750 cd         1 FDB      -0.302600
     13 HAA          1.1450   -14.7280    34.0430 hc         1 FDB       0.045033
     14 HAAA        -0.1800   -15.4590    33.1180 hc         1 FDB       0.045033
     15 HAAB         1.3350   -15.0280    32.3080 hc         1 FDB       0.045033
     16 HNAB        -3.6520    -9.2420    34.4810 hn         1 FDB       0.490500
     17 HNAA        -4.1850   -10.3680    35.6540 hn         1 FDB       0.490500
     18 HAD          1.0710   -12.7300    30.8790 h4         1 FDB       0.150000
     19 HNAF        -0.3360   -10.5870    31.2000 hn         1 FDB       0.359000
     20 HNAG        -2.8720   -12.1950    36.1200 hn         1 FDB       0.322500
@<TRIPOS>BOND
     1     1     8 1   
     2     1    13 1   
     3     1    14 1   
     4     1    15 1   
     5     2     9 1   
     6     2    16 1   
     7     2    17 1   
     8     3    10 2   
     9     4     6 1   
    10     4     8 2   
    11     4    18 1   
    12     5     9 2   
    13     5    11 1   
    14     6    11 1   
    15     6    19 1   
    16     7     9 1   
    17     7    10 1   
    18     7    20 1   
    19     8    12 1   
    20    10    12 1   
    21    11    12 2   
@<TRIPOS>SUBSTRUCTURE
     1 FDB         1 TEMP              0 ****  ****    0 ROOT
