@<TRIPOS>MOLECULE
FDH
   38    41     1     0     0
SMALL
No Charge or Current Charge


@<TRIPOS>ATOM
      1 C4          -1.1410    -1.8020     0.4390 ca         1 FDH       0.331000
      2 C5          -1.3900    -0.4530     0.1420 ca         1 FDH      -0.373900
      3 C6          -2.6720    -0.0450    -0.1030 ca         1 FDH       0.187500
      4 N1          -2.1540    -2.6910     0.4050 nb         1 FDH      -0.271000
      5 C9          -0.5780     0.7430     0.1410 cc         1 FDH       0.460500
      6 C11         -4.1010     3.0670     0.7960 c3         1 FDH      -0.104100
      7 C12         -3.6370     3.0460    -1.7210 c3         1 FDH      -0.104100
      8 N3          -3.6980    -0.9150    -0.1370 nb         1 FDH      -0.283000
      9 C14          0.8780     0.7930     0.2610 ca         1 FDH      -0.106900
     10 C2          -3.3670    -2.1950     0.1050 ca         1 FDH       0.434900
     11 N7          -2.5980     1.3330    -0.2100 na         1 FDH      -0.026100
     12 N8          -1.3140     1.8450    -0.0380 nd         1 FDH      -0.518100
     13 N13         -4.3840    -3.0860     0.0690 nv         1 FDH      -1.068900
     14 Cl           0.4230    -2.4230     0.9510 cl         1 FDH      -0.144000
     15 C16          1.6900     0.0070    -0.5960 ca         1 FDH      -0.041000
     16 C17          2.8890     1.8080     1.2550 ca         1 FDH      -0.090000
     17 C18          1.4850     1.7110     1.1620 ca         1 FDH      -0.080000
     18 C19          3.6380     0.9850     0.4110 ca         1 FDH       0.021100
     19 C20          3.0850     0.1130    -0.4950 ca         1 FDH       0.091400
     20 N21          4.0660    -0.5710    -1.2250 nc         1 FDH      -0.648100
     21 C22          5.1570    -0.0360    -0.6860 cd         1 FDH       0.757500
     22 O23          4.9710     0.8880     0.2920 os         1 FDH      -0.308700
     23 N24          6.3840    -0.4040    -1.0490 nv         1 FDH      -1.015200
     24 H1          -4.6430     1.5350    -0.5940 h1         1 FDH       0.079700
     25 H2          -5.0210     3.6410     0.6350 hc         1 FDH       0.048533
     26 H3          -4.2430     2.4380     1.6830 hc         1 FDH       0.048533
     27 H4          -3.2860     3.7710     1.0000 hc         1 FDH       0.048533
     28 H5          -3.4470     2.4020    -2.5880 hc         1 FDH       0.048533
     29 H6          -4.5550     3.6130    -1.9120 hc         1 FDH       0.048533
     30 H7          -2.8060     3.7560    -1.6300 hc         1 FDH       0.048533
     31 H8          -4.1510    -4.0760     0.0160 hn         1 FDH       0.509500
     32 H9          -5.2570    -2.8030    -0.3690 hn         1 FDH       0.509500
     33 H10          1.2470    -0.6670    -1.3250 ha         1 FDH       0.139000
     34 H11          3.3690     2.4960     1.9470 ha         1 FDH       0.133000
     35 H12          0.8630     2.3410     1.7960 ha         1 FDH       0.128000
     36 H13          6.4320    -1.2930    -1.5300 hn         1 FDH       0.498500
     37 H14          7.1180    -0.2220    -0.3760 hn         1 FDH       0.498500
     38 C10         -3.7810     2.1960    -0.4390 c3         1 FDH       0.113300
@<TRIPOS>BOND
     1     1     2 ar  
     2     1     4 ar  
     3     1    14 1   
     4     2     3 ar  
     5     2     5 1   
     6     3     8 ar  
     7     3    11 1   
     8     4    10 ar  
     9     5     9 1   
    10     5    12 2   
    11     6    25 1   
    12     6    26 1   
    13     6    27 1   
    14     6    38 1   
    15     7    28 1   
    16     7    29 1   
    17     7    30 1   
    18     7    38 1   
    19     8    10 ar  
    20     9    15 ar  
    21     9    17 ar  
    22    10    13 1   
    23    11    12 1   
    24    11    38 1   
    25    13    31 1   
    26    13    32 1   
    27    15    19 ar  
    28    15    33 1   
    29    16    17 ar  
    30    16    18 ar  
    31    16    34 1   
    32    17    35 1   
    33    18    19 ar  
    34    18    22 1   
    35    19    20 1   
    36    20    21 2   
    37    21    22 1   
    38    21    23 1   
    39    23    36 1   
    40    23    37 1   
    41    24    38 1   
@<TRIPOS>SUBSTRUCTURE
     1 FDH         1 TEMP              0 ****  ****    0 ROOT
