@<TRIPOS>MOLECULE
FDH
   38    41     1     0     0
SMALL
abcg2


@<TRIPOS>ATOM
      1 C4          -1.3390    -2.0000     0.2680 ca         1 FDH       0.331000
      2 C5          -1.3960    -0.6200     0.0860 ca         1 FDH      -0.373900
      3 C6          -2.7110    -0.1380    -0.0710 ca         1 FDH       0.187500
      4 N1          -2.3930    -2.7560     0.2420 nb         1 FDH      -0.271000
      5 C9          -0.5790     0.5500     0.0640 cc         1 FDH       0.460500
      6 C11         -3.7400     3.1320     0.8290 c3         1 FDH      -0.104100
      7 C12         -3.5520     2.8770    -1.6780 c3         1 FDH      -0.104100
      8 N3          -3.8170    -0.8660    -0.1030 nb         1 FDH      -0.283000
      9 C14          0.8770     0.6970     0.1820 ca         1 FDH      -0.106900
     10 C2          -3.6030    -2.1660     0.0440 ca         1 FDH       0.434900
     11 N7          -2.6170     1.1970    -0.1610 na         1 FDH      -0.026100
     12 N8          -1.3370     1.6060    -0.0820 nd         1 FDH      -0.518100
     13 N13         -4.6510    -2.9950     0.0190 nv         1 FDH      -1.068900
     14 CL           0.1620    -2.7930     0.5750 cl         1 FDH      -0.144000
     15 C16          1.7260    -0.1000    -0.5870 ca         1 FDH      -0.041000
     16 C17          2.7600     1.8890     1.1700 ca         1 FDH      -0.090000
     17 C18          1.3910     1.6780     1.0400 ca         1 FDH      -0.080000
     18 C19          3.5650     1.0830     0.4020 ca         1 FDH       0.021100
     19 C20          3.0910     0.1040    -0.4680 ca         1 FDH       0.091400
     20 N21          4.1640    -0.5050    -1.0890 nc         1 FDH      -0.648100
     21 C22          5.1960     0.1020    -0.5940 cd         1 FDH       0.757500
     22 O23          4.9260     1.0680     0.3150 os         1 FDH      -0.308700
     23 N24          6.4820    -0.0700    -0.9140 nv         1 FDH      -1.015200
     24 H1          -4.6060     1.5650    -0.3490 h1         1 FDH       0.079700
     25 H2          -4.5990     3.7930     0.7220 hc         1 FDH       0.048533
     26 H3          -3.8330     2.6040     1.7780 hc         1 FDH       0.048533
     27 H4          -2.8410     3.7480     0.8630 hc         1 FDH       0.048533
     28 H5          -3.5310     2.1710    -2.5080 hc         1 FDH       0.048533
     29 H6          -4.3980     3.5480    -1.8270 hc         1 FDH       0.048533
     30 H7          -2.6400     3.4740    -1.7080 hc         1 FDH       0.048533
     31 H8          -4.5160    -3.9890     0.0710 hn         1 FDH       0.509500
     32 H9          -5.5750    -2.6420    -0.1580 hn         1 FDH       0.509500
     33 H10          1.3320    -0.8410    -1.2700 ha         1 FDH       0.139000
     34 H11          3.1560     2.6440     1.8350 ha         1 FDH       0.133000
     35 H12          0.7070     2.2790     1.6230 ha         1 FDH       0.128000
     36 H13          6.7060    -0.8820    -1.4640 hn         1 FDH       0.498500
     37 H14          7.1950     0.2360    -0.2730 hn         1 FDH       0.498500
     38 C10         -3.6930     2.1610    -0.3420 c3         1 FDH       0.113300
@<TRIPOS>BOND
     1     1     2 ar  
     2     1     4 ar  
     3     1    14 1   
     4     2     3 ar  
     5     2     5 1   
     6     3     8 ar  
     7     3    11 1   
     8     4    10 ar  
     9     5     9 1   
    10     5    12 2   
    11     6    25 1   
    12     6    26 1   
    13     6    27 1   
    14     6    38 1   
    15     7    28 1   
    16     7    29 1   
    17     7    30 1   
    18     7    38 1   
    19     8    10 ar  
    20     9    15 ar  
    21     9    17 ar  
    22    10    13 1   
    23    11    12 1   
    24    11    38 1   
    25    13    31 1   
    26    13    32 1   
    27    15    19 ar  
    28    15    33 1   
    29    16    17 ar  
    30    16    18 ar  
    31    16    34 1   
    32    17    35 1   
    33    18    19 ar  
    34    18    22 1   
    35    19    20 1   
    36    20    21 2   
    37    21    22 1   
    38    21    23 1   
    39    23    36 1   
    40    23    37 1   
    41    24    38 1   
@<TRIPOS>SUBSTRUCTURE
     1 FDH         1 TEMP              0 ****  ****    0 ROOT
