@<TRIPOS>MOLECULE
FDI
   40    40     1     0     0
SMALL
No Charge or Current Charge


@<TRIPOS>ATOM
      1 C1          -0.3100     0.2720    -2.8510 ca         1 FDI      -0.133000
      2 C2          -0.5350     0.1310    -1.4650 ca         1 FDI      -0.054000
      3 C3           0.5220    -0.3480    -0.6490 ca         1 FDI      -0.127000
      4 C4           1.7550    -0.6990    -1.2310 ca         1 FDI      -0.077000
      5 C5           1.9830    -0.5510    -2.6170 ca         1 FDI      -0.136600
      6 C6           0.9320    -0.0560    -3.4180 ca         1 FDI      -0.070000
      7 C10          3.3240    -0.9190    -3.2330 c          1 FDI       0.715600
      8 O11          3.4750    -0.7720    -4.4380 o          1 FDI      -0.718500
      9 O12          4.2060    -1.3500    -2.5030 o          1 FDI      -0.718500
     10 N13          0.3930    -0.5360     0.7570 ns         1 FDI      -0.167000
     11 C14         -0.1570     0.2770     1.7410 c          1 FDI       0.592100
     12 C15         -0.1860    -0.3580     3.1530 c3         1 FDI      -0.138700
     13 O16         -0.5650     1.4130     1.5230 o          1 FDI      -0.575100
     14 C17          0.6540     0.4800     4.1590 c3         1 FDI      -0.063400
     15 C18          0.8380    -0.1790     5.5430 c3         1 FDI      -0.090600
     16 C24         -1.6400    -0.6780     3.6180 c3         1 FDI      -0.063400
     17 C26         -2.5330     0.5370     3.9550 c3         1 FDI      -0.090600
     18 N32         -1.8070     0.3920    -0.8810 ns         1 FDI      -0.140000
     19 C33         -2.9330     1.0640    -1.3380 c          1 FDI       0.606100
     20 C34         -4.0890     1.0750    -0.3390 c3         1 FDI      -0.182100
     21 O38         -3.0250     1.6200    -2.4270 o          1 FDI      -0.590100
     22 H1          -1.0960     0.6150    -3.5160 ha         1 FDI       0.114000
     23 H4           2.5500    -1.0790    -0.5930 ha         1 FDI       0.130000
     24 H6           1.0690     0.0640    -4.4910 ha         1 FDI       0.133000
     25 H13          0.7620    -1.4160     1.0950 hn         1 FDI       0.141000
     26 H15          0.3100    -1.3340     3.0670 hc         1 FDI       0.045700
     27 H171         0.2060     1.4730     4.2880 hc         1 FDI       0.043950
     28 H172         1.6490     0.6470     3.7280 hc         1 FDI       0.043950
     29 H181         1.5110     0.4250     6.1630 hc         1 FDI       0.032033
     30 H182        -0.1190    -0.2660     6.0700 hc         1 FDI       0.032033
     31 H183         1.2740    -1.1800     5.4420 hc         1 FDI       0.032033
     32 H241        -2.1370    -1.2670     2.8370 hc         1 FDI       0.043950
     33 H242        -1.5990    -1.3310     4.4990 hc         1 FDI       0.043950
     34 H261        -3.5250     0.1960     4.2750 hc         1 FDI       0.032033
     35 H262        -2.1050     1.1300     4.7720 hc         1 FDI       0.032033
     36 H263        -2.6700     1.1870     3.0850 hc         1 FDI       0.032033
     37 H32         -1.9030     0.0290     0.0580 hn         1 FDI       0.138000
     38 H341        -4.9700     1.6090    -0.7140 hc         1 FDI       0.050700
     39 H342        -4.3300     0.0430    -0.0580 hc         1 FDI       0.050700
     40 H343        -3.7360     1.4950     0.6100 hc         1 FDI       0.050700
@<TRIPOS>BOND
     1     1     2 ar  
     2     1     6 ar  
     3     1    22 1   
     4     2     3 ar  
     5     2    18 1   
     6     3     4 ar  
     7     3    10 1   
     8     4     5 ar  
     9     4    23 1   
    10     5     6 ar  
    11     5     7 1   
    12     6    24 1   
    13     7     8 1   
    14     7     9 1   
    15    10    11 1   
    16    10    25 1   
    17    11    12 1   
    18    11    13 2   
    19    12    14 1   
    20    12    16 1   
    21    12    26 1   
    22    14    15 1   
    23    14    27 1   
    24    14    28 1   
    25    15    29 1   
    26    15    30 1   
    27    15    31 1   
    28    16    17 1   
    29    16    32 1   
    30    16    33 1   
    31    17    34 1   
    32    17    35 1   
    33    17    36 1   
    34    18    19 1   
    35    18    37 1   
    36    19    20 1   
    37    19    21 2   
    38    20    38 1   
    39    20    39 1   
    40    20    40 1   
@<TRIPOS>SUBSTRUCTURE
     1 FDI         1 TEMP              0 ****  ****    0 ROOT
