@<TRIPOS>MOLECULE
FDI
   40    40     1     0     0
SMALL
abcg2


@<TRIPOS>ATOM
      1 C1          -0.4210     0.2590    -2.7130 ca         1 FDI      -0.133000
      2 C2          -0.6110    -0.0690    -1.3740 ca         1 FDI      -0.054000
      3 C3           0.4770    -0.5470    -0.6340 ca         1 FDI      -0.127000
      4 C4           1.7100    -0.7220    -1.2440 ca         1 FDI      -0.077000
      5 C5           1.9040    -0.4070    -2.5840 ca         1 FDI      -0.136600
      6 C6           0.8230     0.0960    -3.3010 ca         1 FDI      -0.070000
      7 C10          3.2640    -0.6030    -3.2410 c          1 FDI       0.715600
      8 O11          3.3600    -0.2560    -4.4330 o          1 FDI      -0.718500
      9 O12          4.1600    -1.0960    -2.5290 o          1 FDI      -0.718500
     10 N13          0.3070    -0.8620     0.7330 ns         1 FDI      -0.167000
     11 C14          0.1510     0.1000     1.6820 c          1 FDI       0.592100
     12 C15         -0.0450    -0.4220     3.0910 c3         1 FDI      -0.138700
     13 O16          0.1200     1.2840     1.3960 o          1 FDI      -0.575100
     14 C17          0.6680     0.4690     4.1070 c3         1 FDI      -0.063400
     15 C18          0.4960    -0.0010     5.5450 c3         1 FDI      -0.090600
     16 C24         -1.5520    -0.5970     3.3600 c3         1 FDI      -0.063400
     17 C26         -2.3490     0.6930     3.5000 c3         1 FDI      -0.090600
     18 N32         -1.8630     0.0030    -0.7540 ns         1 FDI      -0.140000
     19 C33         -2.7690     1.0060    -0.8750 c          1 FDI       0.606100
     20 C34         -3.9930     0.8450    -0.0100 c3         1 FDI      -0.182100
     21 O38         -2.6140     1.9650    -1.6100 o          1 FDI      -0.590100
     22 H1          -1.2500     0.6150    -3.3070 ha         1 FDI       0.114000
     23 H4           2.5360    -1.1000    -0.6560 ha         1 FDI       0.130000
     24 H6           0.9520     0.3490    -4.3450 ha         1 FDI       0.133000
     25 H13          0.4800    -1.8110     1.0300 hn         1 FDI       0.141000
     26 H15          0.3970    -1.4230     3.1510 hc         1 FDI       0.045700
     27 H171         0.3170     1.4980     4.0120 hc         1 FDI       0.043950
     28 H172         1.7340     0.4900     3.8640 hc         1 FDI       0.043950
     29 H181         1.1010     0.6040     6.2210 hc         1 FDI       0.032033
     30 H182        -0.5390     0.0770     5.8810 hc         1 FDI       0.032033
     31 H183         0.8060    -1.0400     5.6690 hc         1 FDI       0.032033
     32 H241        -1.9820    -1.2160     2.5660 hc         1 FDI       0.043950
     33 H242        -1.6630    -1.1870     4.2720 hc         1 FDI       0.043950
     34 H261        -3.4060     0.4680     3.6480 hc         1 FDI       0.032033
     35 H262        -2.0190     1.2780     4.3590 hc         1 FDI       0.032033
     36 H263        -2.2680     1.3300     2.6190 hc         1 FDI       0.032033
     37 H32         -2.0380    -0.6930    -0.0450 hn         1 FDI       0.138000
     38 H341        -4.8880     1.0050    -0.6100 hc         1 FDI       0.050700
     39 H342        -4.0670    -0.1330     0.4640 hc         1 FDI       0.050700
     40 H343        -3.9830     1.6050     0.7720 hc         1 FDI       0.050700
@<TRIPOS>BOND
     1     1     2 ar  
     2     1     6 ar  
     3     1    22 1   
     4     2     3 ar  
     5     2    18 1   
     6     3     4 ar  
     7     3    10 1   
     8     4     5 ar  
     9     4    23 1   
    10     5     6 ar  
    11     5     7 1   
    12     6    24 1   
    13     7     8 1   
    14     7     9 1   
    15    10    11 1   
    16    10    25 1   
    17    11    12 1   
    18    11    13 2   
    19    12    14 1   
    20    12    16 1   
    21    12    26 1   
    22    14    15 1   
    23    14    27 1   
    24    14    28 1   
    25    15    29 1   
    26    15    30 1   
    27    15    31 1   
    28    16    17 1   
    29    16    32 1   
    30    16    33 1   
    31    17    34 1   
    32    17    35 1   
    33    17    36 1   
    34    18    19 1   
    35    18    37 1   
    36    19    20 1   
    37    19    21 2   
    38    20    38 1   
    39    20    39 1   
    40    20    40 1   
@<TRIPOS>SUBSTRUCTURE
     1 FDI         1 TEMP              0 ****  ****    0 ROOT
