@<TRIPOS>MOLECULE
FDJ
   44    45     1     0     0
SMALL
bcc


@<TRIPOS>ATOM
      1 C2          -4.8790    -0.1510     0.7750 c          1 FDJ       0.833500
      2 C4          -5.8420    -2.4320     0.8570 c          1 FDJ       0.728700
      3 C5          -5.6800    -2.5100    -0.5810 cc         1 FDJ      -0.324400
      4 C6          -5.1550    -1.4460    -1.2120 cd         1 FDJ       0.001600
      5 C7          -6.0980    -3.7570    -1.2890 c3         1 FDJ       0.011100
      6 O2          -4.5410     0.8430     1.3810 o          1 FDJ      -0.627500
      7 N1          -4.7710    -0.2870    -0.5900 n          1 FDJ      -0.366000
      8 N3          -5.4160    -1.2400     1.4130 ns         1 FDJ      -0.601500
      9 O4          -6.3040    -3.3140     1.5580 o          1 FDJ      -0.689500
     10 PA           0.9000     1.5830     0.9750 p5         1 FDJ       1.466800
     11 PB           3.5430     0.5260     0.2490 p5         1 FDJ       1.354600
     12 PG           5.2970    -1.8730    -0.7790 p5         1 FDJ       1.151700
     13 C1          -4.1810     0.7880    -1.3870 c5         1 FDJ       0.327500
     14 O1A          0.3700     0.5940     1.9640 o          1 FDJ      -0.870000
     15 O2B          3.7170     0.4690     1.7370 o          1 FDJ      -0.852000
     16 O1G          6.0470    -1.5970     0.5220 o          1 FDJ      -0.910833
     17 C8          -4.8390     2.1640    -1.2550 c5         1 FDJ      -0.153400
     18 O2A          1.3900     2.9200     1.4500 o          1 FDJ      -0.870000
     19 O1B          4.3770     1.4620    -0.5790 o          1 FDJ      -0.852000
     20 CL1          2.5090    -2.2300     0.4270 cl         1 FDJ      -0.292400
     21 O2G          5.0360    -3.3550    -1.0490 o          1 FDJ      -0.910833
     22 C3          -3.7810     3.0440    -0.5890 c5         1 FDJ       0.096100
     23 O3          -3.6850     4.3450    -1.1140 oh         1 FDJ      -0.583800
     24 O3A          1.9440     0.9110    -0.0730 os         1 FDJ      -0.708800
     25 C3B          3.5790    -1.1230    -0.5380 c3         1 FDJ      -0.151700
     26 O3G          5.8270    -1.1110    -1.9940 o          1 FDJ      -0.910833
     27 C9          -2.4820     2.2930    -0.8860 c5         1 FDJ       0.145100
     28 O6          -2.8330     0.9290    -1.0450 os         1 FDJ      -0.339600
     29 C10         -1.4550     2.4340     0.2100 c3         1 FDJ       0.210400
     30 O5          -0.2500     1.8300    -0.1960 os         1 FDJ      -0.531200
     31 H1          -5.0090    -1.4550    -2.2840 h4         1 FDJ       0.134000
     32 H2          -7.1640    -3.9490    -1.1600 hc         1 FDJ       0.019367
     33 H3          -5.8990    -3.6830    -2.3570 hc         1 FDJ       0.019367
     34 H4          -5.5650    -4.6290    -0.9080 hc         1 FDJ       0.019367
     35 H5          -5.5070    -1.1480     2.4170 hn         1 FDJ       0.323500
     36 H6          -4.2720     0.4340    -2.4170 h2         1 FDJ       0.038700
     37 H9          -5.0410     2.5490    -2.2560 hc         1 FDJ       0.037200
     38 H10         -5.7850     2.1350    -0.7180 hc         1 FDJ       0.037200
     39 H13         -3.9510     3.0790     0.4910 h1         1 FDJ       0.070700
     40 H14         -4.3920     4.8750    -0.7350 ho         1 FDJ       0.373000
     41 H15          3.0950    -1.0520    -1.5150 h1         1 FDJ       0.048700
     42 H16         -2.0690     2.6790    -1.8310 h1         1 FDJ       0.064700
     43 H17         -1.3150     3.5040     0.4100 h1         1 FDJ       0.017200
     44 H18         -1.8520     1.9750     1.1230 h1         1 FDJ       0.017200
@<TRIPOS>BOND
     1     1     6 2   
     2     1     7 1   
     3     1     8 1   
     4     2     3 1   
     5     2     8 1   
     6     2     9 2   
     7     3     4 2   
     8     3     5 1   
     9     4     7 1   
    10     4    31 1   
    11     5    32 1   
    12     5    33 1   
    13     5    34 1   
    14     7    13 1   
    15     8    35 1   
    16    10    14 1   
    17    10    18 1   
    18    10    24 1   
    19    10    30 1   
    20    11    15 1   
    21    11    19 1   
    22    11    24 1   
    23    11    25 1   
    24    12    16 1   
    25    12    21 1   
    26    12    25 1   
    27    12    26 1   
    28    13    17 1   
    29    13    28 1   
    30    13    36 1   
    31    17    22 1   
    32    17    37 1   
    33    17    38 1   
    34    20    25 1   
    35    22    23 1   
    36    22    27 1   
    37    22    39 1   
    38    23    40 1   
    39    25    41 1   
    40    27    28 1   
    41    27    29 1   
    42    27    42 1   
    43    29    30 1   
    44    29    43 1   
    45    29    44 1   
@<TRIPOS>SUBSTRUCTURE
     1 FDJ         1 TEMP              0 ****  ****    0 ROOT
