@<TRIPOS>MOLECULE
FDJ
   44    45     1     0     0
SMALL
No Charge or Current Charge


@<TRIPOS>ATOM
      1 C2          -4.6130    -0.0620     0.6870 c          1 FDJ       0.624000
      2 C4          -5.7690    -2.2100     0.4970 c          1 FDJ       0.586200
      3 C5          -4.8350    -2.5700    -0.5920 cc         1 FDJ      -0.324400
      4 C6          -3.8510    -1.6830    -0.9750 cd         1 FDJ      -0.048400
      5 C7          -5.0340    -3.9300    -1.2160 c3         1 FDJ       0.011100
      6 O2          -4.5950     1.0190     1.2530 o          1 FDJ      -0.552000
      7 N1          -3.7290    -0.4440    -0.3480 n          1 FDJ      -0.299000
      8 N3          -5.5570    -0.9800     1.0260 ns         1 FDJ      -0.467500
      9 O4          -6.6690    -2.9240     0.9110 o          1 FDJ      -0.614000
     10 PA           1.0770     1.8720     1.8410 p5         1 FDJ       1.466800
     11 PB           2.0190    -0.2760     0.6000 p5         1 FDJ       1.512400
     12 PG           1.6180    -0.7870    -2.1880 p5         1 FDJ       1.309500
     13 C1          -2.6090     0.4450    -0.7570 c5         1 FDJ       0.350700
     14 O1A          0.2290     1.3530     2.9550 o          1 FDJ      -0.870000
     15 O2B          1.9890    -0.9670     1.9300 o          1 FDJ      -0.852000
     16 O1G          2.9420    -1.3850    -2.5350 o          1 FDJ      -0.910833
     17 C8          -3.1820     1.5660    -1.6820 c5         1 FDJ      -0.153400
     18 O2A          2.4530     2.2290     2.2980 o          1 FDJ      -0.870000
     19 O1B          3.4240     0.0270     0.1770 o          1 FDJ      -0.852000
     20 Cl1          1.1640    -3.2050    -0.2490 cl         1 FDJ      -0.369000
     21 O2G          0.6160    -1.3480    -3.1430 o          1 FDJ      -0.910833
     22 C3          -2.7860     2.8590    -0.9130 c5         1 FDJ       0.119300
     23 O3          -2.5540     3.9560    -1.8040 oh         1 FDJ      -0.706000
     24 O3A          1.0600     0.9780     0.5480 os         1 FDJ      -0.708800
     25 C3B          1.0990    -1.3640    -0.5450 c3         1 FDJ      -0.390700
     26 O3G          1.6440     0.6940    -2.3420 o          1 FDJ      -0.910833
     27 C9          -1.5070     2.3700    -0.1690 c5         1 FDJ       0.168300
     28 O6          -1.9620     1.1030     0.3430 os         1 FDJ      -0.386000
     29 C10         -1.0210     3.3050     0.9780 c3         1 FDJ       0.233600
     30 O5           0.3990     3.1900     1.1980 os         1 FDJ      -0.554400
     31 H1          -3.1220    -1.8730    -1.7600 h4         1 FDJ       0.184000
     32 H2          -6.0330    -4.0170    -1.6600 hc         1 FDJ       0.019367
     33 H3          -4.3010    -4.1130    -2.0110 hc         1 FDJ       0.019367
     34 H4          -4.9210    -4.7260    -0.4700 hc         1 FDJ       0.019367
     35 H5          -6.1860    -0.7060     1.7630 hn         1 FDJ       0.323500
     36 H6          -1.8800    -0.1660    -1.3020 h2         1 FDJ       0.038700
     37 H9          -2.7080     1.5140    -2.6700 hc         1 FDJ       0.037200
     38 H10         -4.2640     1.4970    -1.8400 hc         1 FDJ       0.037200
     39 H13         -3.5620     3.1200    -0.1770 h1         1 FDJ       0.070700
     40 H14         -3.3900     4.1040    -2.3030 ho         1 FDJ       0.472000
     41 H15          0.0500    -1.0770    -0.4400 h1         1 FDJ       0.048700
     42 H16         -0.6880     2.2080    -0.8840 h1         1 FDJ       0.064700
     43 H17         -1.2510     4.3410     0.6980 h1         1 FDJ       0.017200
     44 H18         -1.5840     3.0880     1.8950 h1         1 FDJ       0.017200
@<TRIPOS>BOND
     1     1     6 2   
     2     1     7 1   
     3     1     8 1   
     4     2     3 1   
     5     2     8 1   
     6     2     9 2   
     7     3     4 2   
     8     3     5 1   
     9     4     7 1   
    10     4    31 1   
    11     5    32 1   
    12     5    33 1   
    13     5    34 1   
    14     7    13 1   
    15     8    35 1   
    16    10    14 1   
    17    10    18 1   
    18    10    24 1   
    19    10    30 1   
    20    11    15 1   
    21    11    19 1   
    22    11    24 1   
    23    11    25 1   
    24    12    16 1   
    25    12    21 1   
    26    12    25 1   
    27    12    26 1   
    28    13    17 1   
    29    13    28 1   
    30    13    36 1   
    31    17    22 1   
    32    17    37 1   
    33    17    38 1   
    34    20    25 1   
    35    22    23 1   
    36    22    27 1   
    37    22    39 1   
    38    23    40 1   
    39    25    41 1   
    40    27    28 1   
    41    27    29 1   
    42    27    42 1   
    43    29    30 1   
    44    29    43 1   
    45    29    44 1   
@<TRIPOS>SUBSTRUCTURE
     1 FDJ         1 TEMP              0 ****  ****    0 ROOT
