@<TRIPOS>MOLECULE
FDK
   24    24     1     0     0
SMALL
bcc


@<TRIPOS>ATOM
      1 OAC          0.2760    -2.0950    -0.8520 oh         1 FDK      -0.576800
      2 CAJ          0.3120    -1.2360     0.2730 c6         1 FDK       0.142300
      3 CAL         -1.0970    -0.6950     0.5270 c6         1 FDK       0.168100
      4 OAE         -2.0600    -1.7150     0.5270 oh         1 FDK      -0.559800
      5 CAK         -1.4560     0.3230    -0.5440 c6         1 FDK       0.168100
      6 OAD         -2.8060     0.6790    -0.3990 oh         1 FDK      -0.561800
      7 CAI         -0.5250     1.5300    -0.4300 c6         1 FDK       0.134300
      8 OAB         -0.9300     2.3040     0.6860 oh         1 FDK      -0.579800
      9 CAF          0.9110     1.1100    -0.2940 c2         1 FDK      -0.159200
     10 CAH          1.3000    -0.1120     0.0570 c2         1 FDK      -0.145400
     11 CAG          2.7350    -0.4980     0.2460 c3         1 FDK       0.180600
     12 OAA          3.5920     0.5710    -0.0420 oh         1 FDK      -0.592800
     13 H1           1.0360    -2.6830    -0.8150 ho         1 FDK       0.399000
     14 H2           0.6180    -1.8020     1.1650 h1         1 FDK       0.030700
     15 H3          -1.0670    -0.1840     1.5010 h1         1 FDK       0.058700
     16 H4          -1.8370    -2.3440     1.2200 ho         1 FDK       0.398000
     17 H5          -1.2750    -0.1250    -1.5320 h1         1 FDK       0.058700
     18 H6          -3.0230     1.3200    -1.0830 ho         1 FDK       0.401000
     19 H7          -0.6250     2.1280    -1.3490 h1         1 FDK       0.037700
     20 H8          -0.3440     3.0650     0.7470 ho         1 FDK       0.403000
     21 H9           1.6500     1.8850    -0.4620 ha         1 FDK       0.144000
     22 H10          2.8530    -0.8500     1.2820 h1         1 FDK       0.021200
     23 H11          2.9540    -1.3700    -0.3900 h1         1 FDK       0.021200
     24 H12          4.4970     0.2740     0.0930 ho         1 FDK       0.411000
@<TRIPOS>BOND
     1     1     2 1   
     2     1    13 1   
     3     2     3 1   
     4     2    10 1   
     5     2    14 1   
     6     3     4 1   
     7     3     5 1   
     8     3    15 1   
     9     4    16 1   
    10     5     6 1   
    11     5     7 1   
    12     5    17 1   
    13     6    18 1   
    14     7     8 1   
    15     7     9 1   
    16     7    19 1   
    17     8    20 1   
    18     9    10 2   
    19     9    21 1   
    20    10    11 1   
    21    11    12 1   
    22    11    22 1   
    23    11    23 1   
    24    12    24 1   
@<TRIPOS>SUBSTRUCTURE
     1 FDK         1 TEMP              0 ****  ****    0 ROOT
