@<TRIPOS>MOLECULE
FDK
   24    24     1     0     0
SMALL
No Charge or Current Charge


@<TRIPOS>ATOM
      1 OAC          0.2240    -2.3030    -0.3530 oh         1 FDK      -0.699000
      2 CAJ          0.3170    -1.1660     0.5260 c6         1 FDK       0.165500
      3 CAL         -1.1080    -0.5700     0.7490 c6         1 FDK       0.191300
      4 OAE         -1.9950    -1.6560     1.0870 oh         1 FDK      -0.682000
      5 CAK         -1.5800     0.1930    -0.5360 c6         1 FDK       0.191300
      6 OAD         -2.8940     0.7630    -0.3790 oh         1 FDK      -0.684000
      7 CAI         -0.5990     1.3610    -0.8670 c6         1 FDK       0.157500
      8 OAB         -0.8650     2.4730     0.0040 oh         1 FDK      -0.702000
      9 CAF          0.8600     0.9660    -0.7040 c2         1 FDK      -0.209200
     10 CAH          1.2860    -0.1450    -0.0680 c2         1 FDK      -0.145400
     11 CAG          2.7590    -0.4540     0.1370 c3         1 FDK       0.203800
     12 OAA          3.2820     0.3730     1.1790 oh         1 FDK      -0.655000
     13 H1           1.1420    -2.6170    -0.5140 ho         1 FDK       0.498000
     14 H2           0.7040    -1.4870     1.5050 h1         1 FDK       0.030700
     15 H3          -1.0560     0.1490     1.5810 h1         1 FDK       0.058700
     16 H4          -1.6130    -2.4130     0.5790 ho         1 FDK       0.497000
     17 H5          -1.5730    -0.5130    -1.3800 h1         1 FDK       0.058700
     18 H6          -2.6860     1.6760    -0.0590 ho         1 FDK       0.500000
     19 H7          -0.7630     1.6610    -1.9130 h1         1 FDK       0.037700
     20 H8          -0.1730     3.1490    -0.1780 ho         1 FDK       0.502000
     21 H9           1.5870     1.6680    -1.1160 ha         1 FDK       0.194000
     22 H10          2.8950    -1.5130     0.3920 h1         1 FDK       0.021200
     23 H11          3.3020    -0.2700    -0.8000 h1         1 FDK       0.021200
     24 H12          4.2370     0.1560     1.2600 ho         1 FDK       0.450000
@<TRIPOS>BOND
     1     1     2 1   
     2     1    13 1   
     3     2     3 1   
     4     2    10 1   
     5     2    14 1   
     6     3     4 1   
     7     3     5 1   
     8     3    15 1   
     9     4    16 1   
    10     5     6 1   
    11     5     7 1   
    12     5    17 1   
    13     6    18 1   
    14     7     8 1   
    15     7     9 1   
    16     7    19 1   
    17     8    20 1   
    18     9    10 2   
    19     9    21 1   
    20    10    11 1   
    21    11    12 1   
    22    11    22 1   
    23    11    23 1   
    24    12    24 1   
@<TRIPOS>SUBSTRUCTURE
     1 FDK         1 TEMP              0 ****  ****    0 ROOT
