@<TRIPOS>MOLECULE
FDL
   48    49     1     0     0
SMALL
No Charge or Current Charge


@<TRIPOS>ATOM
      1 CAL         20.3860    31.5290    24.0380 c3         1 FDL      -0.065900
      2 CAD         19.3000    32.1610    23.2050 cc         1 FDL       0.051600
      3 CAC         18.7430    33.3810    23.5280 cd         1 FDL      -0.341200
      4 CAB         17.6830    34.0500    22.7580 c          1 FDL       0.676300
      5 OAK         17.2240    35.1330    23.0890 o          1 FDL      -0.485000
      6 OAA         17.2410    33.3920    21.6510 os         1 FDL      -0.339200
      7 CAF         17.7340    32.1800    21.2550 ca         1 FDL       0.203100
      8 CAG         17.2040    31.5920    20.0980 ca         1 FDL      -0.203000
      9 CAE         18.7480    31.5420    21.9930 ca         1 FDL      -0.181800
     10 CAH         19.2170    30.2900    21.5390 ca         1 FDL      -0.030000
     11 CAI         18.6850    29.7000    20.3780 ca         1 FDL      -0.161000
     12 CAJ         17.6740    30.3500    19.6410 ca         1 FDL       0.029000
     13 NAM         17.0850    29.8130    18.4650 ns         1 FDL      -0.145000
     14 C           17.3900    28.6970    17.6950 c          1 FDL       0.561100
     15 O           18.3490    27.9590    17.9010 o          1 FDL      -0.575100
     16 CA          16.4220    28.4740    16.4750 c3         1 FDL       0.098500
     17 N           17.1050    28.2840    15.1490 n8         1 FDL      -0.988200
     18 CB          15.4550    27.2860    16.7240 c3         1 FDL      -0.073400
     19 CAS         14.5660    27.4450    17.9820 c3         1 FDL      -0.075400
     20 CAT         13.5690    26.2800    18.1650 c3         1 FDL      -0.100400
     21 CAU         12.6860    26.4380    19.4200 c3         1 FDL       0.101000
     22 NAV         11.7640    25.3130    19.5910 ns         1 FDL      -0.508900
     23 CAW         10.5850    25.1490    18.8990 c          1 FDL       0.600100
     24 OAY         10.1820    25.9600    18.0780 o          1 FDL      -0.605100
     25 CAX          9.8180    23.8780    19.2390 c3         1 FDL      -0.181100
     26 H1          20.6530    32.1590    24.8950 hc         1 FDL       0.055033
     27 H2          20.0620    30.5580    24.4300 hc         1 FDL       0.055033
     28 H3          21.2940    31.3760    23.4450 hc         1 FDL       0.055033
     29 H4          19.0650    33.9380    24.3990 ha         1 FDL       0.212000
     30 H5          16.4210    32.1130    19.5520 ha         1 FDL       0.136000
     31 H6          19.9950    29.7570    22.0800 ha         1 FDL       0.121000
     32 H7          19.0710    28.7320    20.0760 ha         1 FDL       0.152000
     33 H8          16.2850    30.3380    18.1370 hn         1 FDL       0.157000
     34 H9          15.8060    29.3810    16.3870 h1         1 FDL       0.065700
     35 H10         17.6990    29.0980    14.9440 hn         1 FDL       0.411500
     36 H11         17.7850    27.5170    15.2320 hn         1 FDL       0.411500
     37 H13         14.8050    27.1700    15.8470 hc         1 FDL       0.063200
     38 H14         16.0350    26.3590    16.8100 hc         1 FDL       0.063200
     39 H15         15.1980    27.5110    18.8760 hc         1 FDL       0.041200
     40 H16         14.0070    28.3870    17.9120 hc         1 FDL       0.041200
     41 H17         12.9280    26.2100    17.2780 hc         1 FDL       0.049200
     42 H18         14.1240    25.3360    18.2360 hc         1 FDL       0.049200
     43 H19         13.3250    26.5030    20.3110 h1         1 FDL       0.055200
     44 H20         12.1080    27.3700    19.3520 h1         1 FDL       0.055200
     45 H21         12.0070    24.5850    20.2530 hn         1 FDL       0.310500
     46 H22         10.4750    23.0130    19.0870 hc         1 FDL       0.059367
     47 H23          9.6400    23.8470    20.3200 hc         1 FDL       0.059367
     48 H24          8.8860    23.7820    18.6720 hc         1 FDL       0.059367
@<TRIPOS>BOND
     1     1     2 1   
     2     1    26 1   
     3     1    27 1   
     4     1    28 1   
     5     2     3 2   
     6     2     9 1   
     7     3     4 1   
     8     3    29 1   
     9     4     5 2   
    10     4     6 1   
    11     6     7 1   
    12     7     8 ar  
    13     7     9 ar  
    14     8    12 ar  
    15     8    30 1   
    16     9    10 ar  
    17    10    11 ar  
    18    10    31 1   
    19    11    12 ar  
    20    11    32 1   
    21    12    13 1   
    22    13    14 1   
    23    13    33 1   
    24    14    15 2   
    25    14    16 1   
    26    16    17 1   
    27    16    18 1   
    28    16    34 1   
    29    17    35 1   
    30    17    36 1   
    31    18    19 1   
    32    18    37 1   
    33    18    38 1   
    34    19    20 1   
    35    19    39 1   
    36    19    40 1   
    37    20    21 1   
    38    20    41 1   
    39    20    42 1   
    40    21    22 1   
    41    21    43 1   
    42    21    44 1   
    43    22    23 1   
    44    22    45 1   
    45    23    24 2   
    46    23    25 1   
    47    25    46 1   
    48    25    47 1   
    49    25    48 1   
@<TRIPOS>SUBSTRUCTURE
     1 FDL         1 TEMP              0 ****  ****    0 ROOT
