@<TRIPOS>MOLECULE
FDL
   48    49     1     0     0
SMALL
abcg2


@<TRIPOS>ATOM
      1 CAL         20.2130    31.4950    24.0660 c3         1 FDL      -0.065900
      2 CAD         19.3310    32.2510    23.1300 cc         1 FDL       0.051600
      3 CAC         19.0540    33.5590    23.3210 cd         1 FDL      -0.341200
      4 CAB         18.2050    34.3080    22.4260 c          1 FDL       0.676300
      5 OAK         17.9190    35.4750    22.5290 o          1 FDL      -0.485000
      6 OAA         17.6790    33.6320    21.3690 os         1 FDL      -0.339200
      7 CAF         17.9290    32.3230    21.1370 ca         1 FDL       0.203100
      8 CAG         17.3390    31.7610    20.0200 ca         1 FDL      -0.203000
      9 CAE         18.7520    31.5830    21.9880 ca         1 FDL      -0.181800
     10 CAH         18.9570    30.2380    21.6690 ca         1 FDL      -0.030000
     11 CAI         18.3830    29.6530    20.5620 ca         1 FDL      -0.161000
     12 CAJ         17.5660    30.4210    19.7180 ca         1 FDL       0.029000
     13 NAM         16.9400    29.9160    18.5820 ns         1 FDL      -0.145000
     14 C           17.1990    28.7640    17.9020 c          1 FDL       0.561100
     15 O           18.0450    27.9550    18.2340 o          1 FDL      -0.575100
     16 CA          16.3440    28.5490    16.6530 c3         1 FDL       0.098500
     17 N           17.1530    28.3760    15.4610 n8         1 FDL      -0.988200
     18 CB          15.4560    27.3230    16.8520 c3         1 FDL      -0.073400
     19 CAS         14.5140    27.4110    18.0460 c3         1 FDL      -0.075400
     20 CAT         13.5890    26.2030    18.1270 c3         1 FDL      -0.100400
     21 CAU         12.6740    26.2610    19.3460 c3         1 FDL       0.101000
     22 NAV         11.8100    25.1080    19.4640 ns         1 FDL      -0.508900
     23 CAW         10.5910    25.0290    18.9040 c          1 FDL       0.600100
     24 OAY         10.0700    25.9590    18.3020 o          1 FDL      -0.605100
     25 CAX          9.8950    23.6980    19.0620 c3         1 FDL      -0.181100
     26 H1          20.5770    32.1330    24.8680 hc         1 FDL       0.055033
     27 H2          19.6760    30.6550    24.5100 hc         1 FDL       0.055033
     28 H3          21.0740    31.0810    23.5380 hc         1 FDL       0.055033
     29 H4          19.4640    34.1020    24.1620 ha         1 FDL       0.212000
     30 H5          16.7130    32.3730    19.3820 ha         1 FDL       0.136000
     31 H6          19.5820    29.6280    22.3080 ha         1 FDL       0.121000
     32 H7          18.5670    28.6120    20.3600 ha         1 FDL       0.152000
     33 H8          16.2550    30.5290    18.1630 hn         1 FDL       0.157000
     34 H9          15.6970    29.4170    16.4920 h1         1 FDL       0.065700
     35 H10         17.7150    29.2020    15.2910 hn         1 FDL       0.411500
     36 H11         17.8030    27.6110    15.5970 hn         1 FDL       0.411500
     37 H13         14.8740    27.1900    15.9360 hc         1 FDL       0.063200
     38 H14         16.0910    26.4360    16.9500 hc         1 FDL       0.063200
     39 H15         15.0840    27.4830    18.9790 hc         1 FDL       0.041200
     40 H16         13.9170    28.3260    17.9790 hc         1 FDL       0.041200
     41 H17         12.9820    26.1440    17.2190 hc         1 FDL       0.049200
     42 H18         14.1840    25.2870    18.1670 hc         1 FDL       0.049200
     43 H19         13.2740    26.3240    20.2550 h1         1 FDL       0.055200
     44 H20         12.0590    27.1600    19.3110 h1         1 FDL       0.055200
     45 H21         12.1920    24.2860    19.9010 hn         1 FDL       0.310500
     46 H22          9.8170    23.2180    18.0860 hc         1 FDL       0.059367
     47 H23         10.4070    23.0150    19.7360 hc         1 FDL       0.059367
     48 H24          8.8800    23.8550    19.4270 hc         1 FDL       0.059367
@<TRIPOS>BOND
     1     1     2 1   
     2     1    26 1   
     3     1    27 1   
     4     1    28 1   
     5     2     3 2   
     6     2     9 1   
     7     3     4 1   
     8     3    29 1   
     9     4     5 2   
    10     4     6 1   
    11     6     7 1   
    12     7     8 ar  
    13     7     9 ar  
    14     8    12 ar  
    15     8    30 1   
    16     9    10 ar  
    17    10    11 ar  
    18    10    31 1   
    19    11    12 ar  
    20    11    32 1   
    21    12    13 1   
    22    13    14 1   
    23    13    33 1   
    24    14    15 2   
    25    14    16 1   
    26    16    17 1   
    27    16    18 1   
    28    16    34 1   
    29    17    35 1   
    30    17    36 1   
    31    18    19 1   
    32    18    37 1   
    33    18    38 1   
    34    19    20 1   
    35    19    39 1   
    36    19    40 1   
    37    20    21 1   
    38    20    41 1   
    39    20    42 1   
    40    21    22 1   
    41    21    43 1   
    42    21    44 1   
    43    22    23 1   
    44    22    45 1   
    45    23    24 2   
    46    23    25 1   
    47    25    46 1   
    48    25    47 1   
    49    25    48 1   
@<TRIPOS>SUBSTRUCTURE
     1 FDL         1 TEMP              0 ****  ****    0 ROOT
