@<TRIPOS>MOLECULE
FDN
   35    37     1     0     0
SMALL
abcg2


@<TRIPOS>ATOM
      1 F13         -2.0700    -2.2060     0.6710 f          1 FDN      -0.159000
      2 C13         -2.7230    -1.1190     0.2480 ca         1 FDN       0.228000
      3 C12         -3.9790    -1.3140    -0.2900 ca         1 FDN      -0.206000
      4 C11         -4.6700    -0.2030    -0.7280 ca         1 FDN       0.218000
      5 F11         -5.8880    -0.3720    -1.2510 f          1 FDN      -0.165000
      6 C10         -4.1410     1.0680    -0.6390 ca         1 FDN      -0.175000
      7 C9          -2.8750     1.2210    -0.0960 ca         1 FDN      -0.029000
      8 C8          -2.1320     0.1350     0.3620 ca         1 FDN      -0.169300
      9 C5          -0.7480     0.3160     0.9550 c5         1 FDN       0.169300
     10 C7          -0.5870    -0.2270     2.3690 c3         1 FDN      -0.093100
     11 O4          -0.4440     1.7190     0.9970 os         1 FDN      -0.415100
     12 C3           0.6430     2.0190     0.2880 c          1 FDN       0.721100
     13 O3           1.1050     3.1120     0.1870 o          1 FDN      -0.456000
     14 N2           1.1170     0.8490    -0.2820 n          1 FDN      -0.269800
     15 C6           0.3280    -0.2350     0.0220 c          1 FDN       0.526000
     16 O6           0.4900    -1.3560    -0.3660 o          1 FDN      -0.452000
     17 N1           2.2090     0.8290    -1.0890 nu         1 FDN      -0.654200
     18 C21          3.3530     0.1710    -0.6190 ca         1 FDN       0.265000
     19 C22          3.6100     0.0170     0.7410 ca         1 FDN      -0.143000
     20 C23          4.7850    -0.5960     1.1550 ca         1 FDN      -0.079500
     21 C24          5.7150    -1.0520     0.2330 ca         1 FDN      -0.132000
     22 C25          5.4550    -0.8900    -1.1230 ca         1 FDN      -0.079500
     23 C26          4.2840    -0.2870    -1.5500 ca         1 FDN      -0.143000
     24 H12         -4.3990    -2.3090    -0.3630 ha         1 FDN       0.156000
     25 H10         -4.6990     1.9280    -0.9830 ha         1 FDN       0.143000
     26 H9          -2.4740     2.2210    -0.0280 ha         1 FDN       0.140000
     27 H71         -1.3210     0.2400     3.0240 hc         1 FDN       0.066367
     28 H72         -0.7260    -1.3030     2.4050 hc         1 FDN       0.066367
     29 H73          0.4100    -0.0030     2.7510 hc         1 FDN       0.066367
     30 HN1          1.9720     0.6620    -2.0570 hn         1 FDN       0.479000
     31 H22          2.9100     0.3700     1.4880 ha         1 FDN       0.114500
     32 H23          4.9710    -0.7110     2.2150 ha         1 FDN       0.114000
     33 H24          6.6280    -1.5270     0.5640 ha         1 FDN       0.117000
     34 H25          6.1670    -1.2410    -1.8590 ha         1 FDN       0.114000
     35 H26          4.0880    -0.1730    -2.6100 ha         1 FDN       0.114500
@<TRIPOS>BOND
     1     1     2 1   
     2     2     3 ar  
     3     2     8 ar  
     4     3     4 ar  
     5     3    24 1   
     6     4     5 1   
     7     4     6 ar  
     8     6     7 ar  
     9     6    25 1   
    10     7     8 ar  
    11     7    26 1   
    12     8     9 1   
    13     9    10 1   
    14     9    11 1   
    15     9    15 1   
    16    10    27 1   
    17    10    28 1   
    18    10    29 1   
    19    11    12 1   
    20    12    13 2   
    21    12    14 1   
    22    14    15 1   
    23    14    17 1   
    24    15    16 2   
    25    17    18 1   
    26    17    30 1   
    27    18    19 ar  
    28    18    23 ar  
    29    19    20 ar  
    30    19    31 1   
    31    20    21 ar  
    32    20    32 1   
    33    21    22 ar  
    34    21    33 1   
    35    22    23 ar  
    36    22    34 1   
    37    23    35 1   
@<TRIPOS>SUBSTRUCTURE
     1 FDN         1 TEMP              0 ****  ****    0 ROOT
