@<TRIPOS>MOLECULE
FDN
   35    37     1     0     0
SMALL
No Charge or Current Charge


@<TRIPOS>ATOM
      1 F13         -2.1180    -2.2550     0.6330 f          1 FDN      -0.159000
      2 C13         -2.7860    -1.1470     0.2440 ca         1 FDN       0.228000
      3 C12         -4.0730    -1.3120    -0.2860 ca         1 FDN      -0.206000
      4 C11         -4.8010    -0.1980    -0.7100 ca         1 FDN       0.218000
      5 F11         -6.0410    -0.3580    -1.2210 f          1 FDN      -0.165000
      6 C10         -4.2470     1.0820    -0.6090 ca         1 FDN      -0.175000
      7 C9          -2.9560     1.2530    -0.0790 ca         1 FDN      -0.029000
      8 C8          -2.1970     0.1390     0.3640 ca         1 FDN      -0.169300
      9 C5          -0.7730     0.3230     0.9420 c5         1 FDN       0.169300
     10 C7          -0.6000    -0.2500     2.3710 c3         1 FDN      -0.093100
     11 O4          -0.4690     1.7490     1.0420 os         1 FDN      -0.415100
     12 C3           0.6550     2.0400     0.3140 c          1 FDN       0.721100
     13 O3           1.1650     3.1460     0.2120 o          1 FDN      -0.456000
     14 N2           1.0920     0.8600    -0.2920 n          1 FDN      -0.269800
     15 C6           0.3190    -0.2590    -0.0130 c          1 FDN       0.526000
     16 O6           0.4940    -1.3910    -0.4470 o          1 FDN      -0.452000
     17 N1           2.2710     0.7990    -1.1490 nu         1 FDN      -0.654200
     18 C21          3.4320     0.1810    -0.6570 ca         1 FDN       0.265000
     19 C22          3.6870     0.0690     0.7260 ca         1 FDN      -0.143000
     20 C23          4.8610    -0.5550     1.1850 ca         1 FDN      -0.079500
     21 C24          5.7900    -1.0660     0.2640 ca         1 FDN      -0.132000
     22 C25          5.5470    -0.9510    -1.1150 ca         1 FDN      -0.079500
     23 C26          4.3720    -0.3270    -1.5700 ca         1 FDN      -0.143000
     24 H12         -4.5040    -2.3060    -0.3680 ha         1 FDN       0.156000
     25 H10         -4.8180     1.9440    -0.9430 ha         1 FDN       0.143000
     26 H9          -2.5610     2.2650    -0.0180 ha         1 FDN       0.140000
     27 H71         -1.4040     0.0960     3.0310 hc         1 FDN       0.066367
     28 H72         -0.6060    -1.3450     2.3830 hc         1 FDN       0.066367
     29 H73          0.3530     0.0680     2.8110 hc         1 FDN       0.066367
     30 HN1          2.0840     0.7650    -2.1580 hn         1 FDN       0.479000
     31 H22          2.9860     0.4670     1.4530 ha         1 FDN       0.114500
     32 H23          5.0520    -0.6390     2.2530 ha         1 FDN       0.114000
     33 H24          6.6990    -1.5480     0.6180 ha         1 FDN       0.117000
     34 H25          6.2670    -1.3440    -1.8300 ha         1 FDN       0.114000
     35 H26          4.1920    -0.2420    -2.6390 ha         1 FDN       0.114500
@<TRIPOS>BOND
     1     1     2 1   
     2     2     3 ar  
     3     2     8 ar  
     4     3     4 ar  
     5     3    24 1   
     6     4     5 1   
     7     4     6 ar  
     8     6     7 ar  
     9     6    25 1   
    10     7     8 ar  
    11     7    26 1   
    12     8     9 1   
    13     9    10 1   
    14     9    11 1   
    15     9    15 1   
    16    10    27 1   
    17    10    28 1   
    18    10    29 1   
    19    11    12 1   
    20    12    13 2   
    21    12    14 1   
    22    14    15 1   
    23    14    17 1   
    24    15    16 2   
    25    17    18 1   
    26    17    30 1   
    27    18    19 ar  
    28    18    23 ar  
    29    19    20 ar  
    30    19    31 1   
    31    20    21 ar  
    32    20    32 1   
    33    21    22 ar  
    34    21    33 1   
    35    22    23 ar  
    36    22    34 1   
    37    23    35 1   
@<TRIPOS>SUBSTRUCTURE
     1 FDN         1 TEMP              0 ****  ****    0 ROOT
