@<TRIPOS>MOLECULE
FDO
   26    25     1     0     0
SMALL
abcg2


@<TRIPOS>ATOM
      1 C33         21.4060    13.8960     4.7960 c          1 FDO       0.563100
      2 C35         20.3400    12.7880     4.7740 c3         1 FDO       0.109500
      3 C36         18.9700    13.4750     4.8300 c3         1 FDO      -0.066400
      4 C37         17.7450    12.5850     5.0920 c3         1 FDO      -0.046700
      5 C38         17.9560    11.6390     6.2690 c3         1 FDO      -0.087600
      6 C39         17.2480    11.8340     3.8600 c3         1 FDO      -0.087600
      7 N32         21.7610    14.3970     3.6030 nt         1 FDO      -0.612000
      8 N40         20.4240    11.8350     3.6970 n7         1 FDO      -0.892400
      9 O34         21.8560    14.3190     5.8520 o          1 FDO      -0.603100
     10 H1          20.4930    12.2420     5.7110 h1         1 FDO       0.091700
     11 H2          19.0180    14.2210     5.6280 hc         1 FDO       0.045200
     12 H3          18.8140    14.0370     3.9020 hc         1 FDO       0.045200
     13 H4          16.9480    13.2810     5.3760 hc         1 FDO       0.037700
     14 H5          18.3080    12.1720     7.1550 hc         1 FDO       0.034700
     15 H6          17.0240    11.1370     6.5340 hc         1 FDO       0.034700
     16 H7          18.6870    10.8620     6.0350 hc         1 FDO       0.034700
     17 H8          16.2960    11.3430     4.0710 hc         1 FDO       0.034700
     18 H9          17.0900    12.5150     3.0220 hc         1 FDO       0.034700
     19 H10         17.9560    11.0710     3.5400 hc         1 FDO       0.034700
     20 H11         21.6140    10.3960     2.7790 h1         1 FDO       0.032700
     21 H12         22.5600    11.7420     3.4210 h1         1 FDO       0.032700
     22 H13         21.8480    10.5550     4.5150 h1         1 FDO       0.032700
     23 H14         22.4320    15.1460     3.5430 hn         1 FDO       0.309500
     24 H15         21.3950    14.0380     2.7380 hn         1 FDO       0.309500
     25 H16         20.1330    12.2230     2.8100 hn         1 FDO       0.419000
     26 C41         21.6750    11.1160     3.5950 c3         1 FDO       0.159100
@<TRIPOS>BOND
     1     1     2 1   
     2     1     7 1   
     3     1     9 2   
     4     2     3 1   
     5     2     8 1   
     6     2    10 1   
     7     3     4 1   
     8     3    11 1   
     9     3    12 1   
    10     4     5 1   
    11     4     6 1   
    12     4    13 1   
    13     5    14 1   
    14     5    15 1   
    15     5    16 1   
    16     6    17 1   
    17     6    18 1   
    18     6    19 1   
    19     7    23 1   
    20     7    24 1   
    21     8    25 1   
    22     8    26 1   
    23    20    26 1   
    24    21    26 1   
    25    22    26 1   
@<TRIPOS>SUBSTRUCTURE
     1 FDO         1 TEMP              0 ****  ****    0 ROOT
