@<TRIPOS>MOLECULE
FDO
   26    25     1     0     0
SMALL
No Charge or Current Charge


@<TRIPOS>ATOM
      1 C33         21.5360    13.6890     4.8510 c          1 FDO       0.563100
      2 C35         20.3510    12.6850     4.6100 c3         1 FDO       0.109500
      3 C36         18.9750    13.4210     4.6050 c3         1 FDO      -0.066400
      4 C37         17.7210    12.5860     5.0070 c3         1 FDO      -0.046700
      5 C38         17.7750    12.0830     6.4690 c3         1 FDO      -0.087600
      6 C39         17.3940    11.4370     4.0260 c3         1 FDO      -0.087600
      7 N32         21.5900    14.7820     4.0500 nt         1 FDO      -0.612000
      8 N40         20.5070    11.8760     3.3510 n7         1 FDO      -0.892400
      9 O34         22.3940    13.5250     5.7050 o          1 FDO      -0.603100
     10 H1          20.3720    12.0200     5.4830 h1         1 FDO       0.091700
     11 H2          19.0370    14.2620     5.3080 hc         1 FDO       0.045200
     12 H3          18.8050    13.8740     3.6200 hc         1 FDO       0.045200
     13 H4          16.8720    13.2800     4.9540 hc         1 FDO       0.037700
     14 H5          17.9910    12.9080     7.1580 hc         1 FDO       0.034700
     15 H6          16.8120    11.6460     6.7600 hc         1 FDO       0.034700
     16 H7          18.5450    11.3130     6.5990 hc         1 FDO       0.034700
     17 H8          16.4160    11.0000     4.2590 hc         1 FDO       0.034700
     18 H9          17.3620    11.8040     2.9930 hc         1 FDO       0.034700
     19 H10         18.1420    10.6370     4.0880 hc         1 FDO       0.034700
     20 H11         21.6760    10.3890     2.3760 h1         1 FDO       0.032700
     21 H12         22.6150    11.5310     3.3610 h1         1 FDO       0.032700
     22 H13         21.6480    10.2600     4.1480 h1         1 FDO       0.032700
     23 H14         22.3390    15.4480     4.1710 hn         1 FDO       0.309500
     24 H15         20.8850    14.9270     3.3420 hn         1 FDO       0.309500
     25 H16         20.5640    12.5150     2.5470 hn         1 FDO       0.419000
     26 C41         21.6730    10.9690     3.3090 c3         1 FDO       0.159100
@<TRIPOS>BOND
     1     1     2 1   
     2     1     7 1   
     3     1     9 2   
     4     2     3 1   
     5     2     8 1   
     6     2    10 1   
     7     3     4 1   
     8     3    11 1   
     9     3    12 1   
    10     4     5 1   
    11     4     6 1   
    12     4    13 1   
    13     5    14 1   
    14     5    15 1   
    15     5    16 1   
    16     6    17 1   
    17     6    18 1   
    18     6    19 1   
    19     7    23 1   
    20     7    24 1   
    21     8    25 1   
    22     8    26 1   
    23    20    26 1   
    24    21    26 1   
    25    22    26 1   
@<TRIPOS>SUBSTRUCTURE
     1 FDO         1 TEMP              0 ****  ****    0 ROOT
