@<TRIPOS>MOLECULE
FDR
   24    26     1     0     0
SMALL
bcc


@<TRIPOS>ATOM
      1 CAA          4.2120     0.5550    -0.0250 c3         1 FDR      -0.143400
      2 OAB          0.8540    -2.7260     0.0400 o          1 FDR      -0.614500
      3 CAC         -3.6380    -0.8190    -0.2290 c5         1 FDR      -0.079400
      4 CAD         -3.3570     0.6740     0.0720 c5         1 FDR       0.001900
      5 CAE         -2.3370    -1.6020     0.0740 c5         1 FDR      -0.011100
      6 NAF          1.8830     1.2260    -0.0170 nc         1 FDR      -0.603100
      7 NAG          2.3890    -1.0460     0.0100 ns         1 FDR      -0.487400
      8 SAH         -0.7120     1.9840     0.0010 ss         1 FDR      -0.009800
      9 CAI          2.7510     0.2650    -0.0120 cd         1 FDR       0.501900
     10 CAJ         -1.8670     0.7020     0.0090 cc         1 FDR      -0.106400
     11 CAK         -1.2980    -0.5260     0.0170 cd         1 FDR      -0.044300
     12 CAL          1.0870    -1.5280     0.0240 c          1 FDR       0.740100
     13 CAM          0.5890     0.8390     0.0030 cc         1 FDR       0.217300
     14 CAN          0.1220    -0.4640     0.0180 cd         1 FDR      -0.220600
     15 HAA          4.3770     1.6250    -0.1060 hc         1 FDR       0.067367
     16 HAAA         4.6850     0.1950     0.8900 hc         1 FDR       0.067367
     17 HAAB         4.7000     0.0570    -0.8650 hc         1 FDR       0.067367
     18 HAC         -4.4890    -1.1970     0.3360 hc         1 FDR       0.046200
     19 HACA        -3.8780    -0.9260    -1.2870 hc         1 FDR       0.046200
     20 HAD         -3.8390     1.3370    -0.6490 hc         1 FDR       0.053700
     21 HADA        -3.7120     0.9680     1.0640 hc         1 FDR       0.053700
     22 HAE         -2.3580    -2.0650     1.0650 hc         1 FDR       0.064700
     23 HAEA        -2.1650    -2.4030    -0.6450 hc         1 FDR       0.064700
     24 HNAG         3.1250    -1.7420     0.0140 hn         1 FDR       0.327500
@<TRIPOS>BOND
     1     1     9 1   
     2     1    15 1   
     3     1    16 1   
     4     1    17 1   
     5     2    12 2   
     6     3     4 1   
     7     3     5 1   
     8     3    18 1   
     9     3    19 1   
    10     4    10 1   
    11     4    20 1   
    12     4    21 1   
    13     5    11 1   
    14     5    22 1   
    15     5    23 1   
    16     6     9 2   
    17     6    13 1   
    18     7     9 1   
    19     7    12 1   
    20     7    24 1   
    21     8    10 1   
    22     8    13 1   
    23    10    11 2   
    24    11    14 1   
    25    12    14 1   
    26    13    14 2   
@<TRIPOS>SUBSTRUCTURE
     1 FDR         1 TEMP              0 ****  ****    0 ROOT
