@<TRIPOS>MOLECULE
FDR
   24    26     1     0     0
SMALL
No Charge or Current Charge


@<TRIPOS>ATOM
      1 CAA          4.2380     0.5140    -0.0450 c3         1 FDR      -0.143400
      2 OAB          0.8230    -2.6900     0.0630 o          1 FDR      -0.539000
      3 CAC         -3.6640    -0.8530    -0.2710 c5         1 FDR      -0.079400
      4 CAD         -3.3940     0.6510     0.0710 c5         1 FDR       0.001900
      5 CAE         -2.3100    -1.5750     0.1000 c5         1 FDR      -0.011100
      6 NAF          1.9110     1.2710    -0.0180 nc         1 FDR      -0.603100
      7 NAG          2.3980    -1.0680     0.0110 ns         1 FDR      -0.420400
      8 SAH         -0.7960     2.0650     0.0160 ss         1 FDR       0.280000
      9 CAI          2.7620     0.2470    -0.0160 cd         1 FDR       0.501900
     10 CAJ         -1.9070     0.7050     0.0620 cc         1 FDR      -0.251300
     11 CAK         -1.2710    -0.4810     0.0630 cd         1 FDR      -0.044300
     12 CAL          1.1130    -1.5040     0.0390 c          1 FDR       0.597600
     13 CAM          0.5710     0.9250     0.0110 cc         1 FDR       0.072400
     14 CAN          0.1480    -0.3910     0.0380 cd         1 FDR      -0.220600
     15 HAA          4.4530     1.5880    -0.0650 hc         1 FDR       0.067367
     16 HAAA         4.7280     0.0930     0.8400 hc         1 FDR       0.067367
     17 HAAB         4.6970     0.0660    -0.9340 hc         1 FDR       0.067367
     18 HAC         -4.5250    -1.2630     0.2690 hc         1 FDR       0.046200
     19 HACA        -3.8720    -0.9660    -1.3420 hc         1 FDR       0.046200
     20 HAD         -3.8440     1.3310    -0.6610 hc         1 FDR       0.053700
     21 HADA        -3.7880     0.9170     1.0590 hc         1 FDR       0.053700
     22 HAE         -2.3670    -2.0220     1.0990 hc         1 FDR       0.064700
     23 HAEA        -2.0850    -2.3900    -0.5960 hc         1 FDR       0.064700
     24 HNAG         3.1070    -1.7860     0.0100 hn         1 FDR       0.327500
@<TRIPOS>BOND
     1     1     9 1   
     2     1    15 1   
     3     1    16 1   
     4     1    17 1   
     5     2    12 2   
     6     3     4 1   
     7     3     5 1   
     8     3    18 1   
     9     3    19 1   
    10     4    10 1   
    11     4    20 1   
    12     4    21 1   
    13     5    11 1   
    14     5    22 1   
    15     5    23 1   
    16     6     9 2   
    17     6    13 1   
    18     7     9 1   
    19     7    12 1   
    20     7    24 1   
    21     8    10 1   
    22     8    13 1   
    23    10    11 2   
    24    11    14 1   
    25    12    14 1   
    26    13    14 2   
@<TRIPOS>SUBSTRUCTURE
     1 FDR         1 TEMP              0 ****  ****    0 ROOT
