@<TRIPOS>MOLECULE
FDS
   38    41     1     0     0
SMALL
No Charge or Current Charge


@<TRIPOS>ATOM
      1 C1          -2.6840     0.1670    -3.2650 ca         1 FDS       0.143600
      2 O1          -3.5090     0.0520    -4.3410 oh         1 FDS      -0.545100
      3 C2          -1.3190    -0.1110    -3.4000 ca         1 FDS      -0.183000
      4 C3          -0.4630     0.0070    -2.2940 ca         1 FDS       0.156100
      5 O2           0.8730    -0.2660    -2.4660 os         1 FDS      -0.243200
      6 C4           1.8030    -0.0760    -1.4720 ca         1 FDS       0.156100
      7 C5           3.1580    -0.2770    -1.7760 ca         1 FDS      -0.183000
      8 C6           4.1350    -0.0860    -0.7910 ca         1 FDS       0.143600
      9 O3           5.4470    -0.2810    -1.0910 oh         1 FDS      -0.545100
     10 C7           3.7620     0.3060     0.5020 ca         1 FDS      -0.234500
     11 C8           2.4050     0.5060     0.8120 ca         1 FDS      -0.020500
     12 C9           1.4170     0.3150    -0.1740 ca         1 FDS      -0.144800
     13 C10         -0.0580     0.5210     0.1790 c6         1 FDS       0.091200
     14 C11         -0.9730     0.4030    -1.0410 ca         1 FDS      -0.144800
     15 C12         -2.3490     0.6820    -0.9120 ca         1 FDS      -0.020500
     16 C13         -3.2010     0.5640    -2.0240 ca         1 FDS      -0.234500
     17 C14         -0.4980    -0.4710     1.2750 ca         1 FDS      -0.068300
     18 C15         -0.4060    -1.8520     1.0010 ca         1 FDS      -0.118000
     19 C16         -0.8140    -2.8040     1.9480 ca         1 FDS      -0.144000
     20 C17         -1.3250    -2.3860     3.1840 ca         1 FDS      -0.135000
     21 C18         -1.4250    -1.0160     3.4720 ca         1 FDS      -0.094000
     22 C19         -1.0120    -0.0470     2.5320 ca         1 FDS      -0.115600
     23 C20         -1.1420     1.4090     2.9040 c          1 FDS       0.710600
     24 O4          -0.1200     2.0510     3.0940 o          1 FDS      -0.719500
     25 O5          -2.2670     1.8680     3.0380 o          1 FDS      -0.719500
     26 HO1         -4.4180     0.2850    -4.0560 ho         1 FDS       0.457500
     27 H2          -0.9190    -0.4170    -4.3630 ha         1 FDS       0.130000
     28 H5           3.4490    -0.5790    -2.7780 ha         1 FDS       0.130000
     29 HO3          5.9760    -0.1010    -0.2850 ho         1 FDS       0.457500
     30 H7           4.5140     0.4560     1.2730 ha         1 FDS       0.108500
     31 H8           2.1200     0.8060     1.8200 ha         1 FDS       0.154000
     32 H10         -0.1510     1.5540     0.5360 hc         1 FDS       0.122700
     33 H12         -2.7570     0.9860     0.0510 ha         1 FDS       0.154000
     34 H13         -4.2610     0.7810    -1.9110 ha         1 FDS       0.108500
     35 H15         -0.0190    -2.1900     0.0420 ha         1 FDS       0.095000
     36 H16         -0.7370    -3.8650     1.7210 ha         1 FDS       0.087000
     37 H17         -1.6450    -3.1220     3.9190 ha         1 FDS       0.087000
     38 H18         -1.8230    -0.6980     4.4340 ha         1 FDS       0.121000
@<TRIPOS>BOND
     1     1     2 1   
     2     1     3 ar  
     3     1    16 ar  
     4     2    26 1   
     5     3     4 ar  
     6     3    27 1   
     7     4     5 1   
     8     4    14 ar  
     9     5     6 1   
    10     6     7 ar  
    11     6    12 ar  
    12     7     8 ar  
    13     7    28 1   
    14     8     9 1   
    15     8    10 ar  
    16     9    29 1   
    17    10    11 ar  
    18    10    30 1   
    19    11    12 ar  
    20    11    31 1   
    21    12    13 1   
    22    13    14 1   
    23    13    17 1   
    24    13    32 1   
    25    14    15 ar  
    26    15    16 ar  
    27    15    33 1   
    28    16    34 1   
    29    17    18 ar  
    30    17    22 ar  
    31    18    19 ar  
    32    18    35 1   
    33    19    20 ar  
    34    19    36 1   
    35    20    21 ar  
    36    20    37 1   
    37    21    22 ar  
    38    21    38 1   
    39    22    23 1   
    40    23    24 1   
    41    23    25 1   
@<TRIPOS>SUBSTRUCTURE
     1 FDS         1 TEMP              0 ****  ****    0 ROOT
