@<TRIPOS>MOLECULE
FDS
   38    41     1     0     0
SMALL
abcg2


@<TRIPOS>ATOM
      1 C1          -2.6050     0.1220    -3.2640 ca         1 FDS       0.143600
      2 O1          -3.3460    -0.0430    -4.3770 oh         1 FDS      -0.545100
      3 C2          -1.2650    -0.2340    -3.3250 ca         1 FDS      -0.183000
      4 C3          -0.4670    -0.0820    -2.1980 ca         1 FDS       0.156100
      5 O2           0.8340    -0.4550    -2.3440 os         1 FDS      -0.243200
      6 C4           1.7350    -0.1380    -1.3740 ca         1 FDS       0.156100
      7 C5           3.0670    -0.3590    -1.6990 ca         1 FDS      -0.183000
      8 C6           4.0540    -0.0620    -0.7690 ca         1 FDS       0.143600
      9 O3           5.3330    -0.2990    -1.1210 oh         1 FDS      -0.545100
     10 C7           3.6990     0.4660     0.4730 ca         1 FDS      -0.234500
     11 C8           2.3640     0.6720     0.7670 ca         1 FDS      -0.020500
     12 C9           1.3530     0.3710    -0.1400 ca         1 FDS      -0.144800
     13 C10         -0.1000     0.5460     0.2240 c6         1 FDS       0.091200
     14 C11         -0.9650     0.4160    -1.0030 ca         1 FDS      -0.144800
     15 C12         -2.3100     0.7720    -0.9750 ca         1 FDS      -0.020500
     16 C13         -3.1330     0.6340    -2.0780 ca         1 FDS      -0.234500
     17 C14         -0.5190    -0.4590     1.2880 ca         1 FDS      -0.068300
     18 C15         -0.5030    -1.8120     0.9460 ca         1 FDS      -0.118000
     19 C16         -0.8960    -2.7920     1.8400 ca         1 FDS      -0.144000
     20 C17         -1.3460    -2.4220     3.1020 ca         1 FDS      -0.135000
     21 C18         -1.3930    -1.0810     3.4410 ca         1 FDS      -0.094000
     22 C19         -0.9610    -0.0840     2.5610 ca         1 FDS      -0.115600
     23 C20         -0.9900     1.3530     3.0710 c          1 FDS       0.710600
     24 O4           0.0100     2.0630     2.8370 o          1 FDS      -0.719500
     25 O5          -2.0010     1.6830     3.7150 o          1 FDS      -0.719500
     26 HO1         -4.2540     0.2370    -4.2190 ho         1 FDS       0.457500
     27 H2          -0.8420    -0.6240    -4.2430 ha         1 FDS       0.130000
     28 H5           3.3320    -0.7590    -2.6710 ha         1 FDS       0.130000
     29 HO3          5.9270    -0.0590    -0.4010 ho         1 FDS       0.457500
     30 H7           4.4610     0.7080     1.2050 ha         1 FDS       0.108500
     31 H8           2.0770     1.0760     1.7300 ha         1 FDS       0.154000
     32 H10         -0.2280     1.5500     0.6270 hc         1 FDS       0.122700
     33 H12         -2.7260     1.1610    -0.0530 ha         1 FDS       0.154000
     34 H13         -4.1760     0.9200    -2.0170 ha         1 FDS       0.108500
     35 H15         -0.1750    -2.1070    -0.0440 ha         1 FDS       0.095000
     36 H16         -0.8600    -3.8350     1.5520 ha         1 FDS       0.087000
     37 H17         -1.6650    -3.1750     3.8130 ha         1 FDS       0.087000
     38 H18         -1.7600    -0.7930     4.4170 ha         1 FDS       0.121000
@<TRIPOS>BOND
     1     1     2 1   
     2     1     3 ar  
     3     1    16 ar  
     4     2    26 1   
     5     3     4 ar  
     6     3    27 1   
     7     4     5 1   
     8     4    14 ar  
     9     5     6 1   
    10     6     7 ar  
    11     6    12 ar  
    12     7     8 ar  
    13     7    28 1   
    14     8     9 1   
    15     8    10 ar  
    16     9    29 1   
    17    10    11 ar  
    18    10    30 1   
    19    11    12 ar  
    20    11    31 1   
    21    12    13 1   
    22    13    14 1   
    23    13    17 1   
    24    13    32 1   
    25    14    15 ar  
    26    15    16 ar  
    27    15    33 1   
    28    16    34 1   
    29    17    18 ar  
    30    17    22 ar  
    31    18    19 ar  
    32    18    35 1   
    33    19    20 ar  
    34    19    36 1   
    35    20    21 ar  
    36    20    37 1   
    37    21    22 ar  
    38    21    38 1   
    39    22    23 1   
    40    23    24 1   
    41    23    25 1   
@<TRIPOS>SUBSTRUCTURE
     1 FDS         1 TEMP              0 ****  ****    0 ROOT
