@<TRIPOS>MOLECULE
FDT
   27    28     1     0     0
SMALL
No Charge or Current Charge


@<TRIPOS>ATOM
      1 C1          -1.5500    -0.6750    -1.2900 c2         1 FDT       0.120000
      2 C2          -1.2690    -0.0320    -0.1270 ce         1 FDT      -0.375400
      3 C3          -2.4650     0.3880     0.6720 c          1 FDT       0.606100
      4 C5           0.1080     0.3250     0.4920 c3         1 FDT       0.164200
      5 S6           1.6240    -0.4010    -0.3060 ss         1 FDT      -0.398600
      6 O7          -2.4280     1.0870     1.6780 o          1 FDT      -0.586100
      7 N8          -0.6130    -1.0900    -2.2360 nu         1 FDT      -0.632000
      8 C9           0.4000    -0.2380    -2.7560 ce         1 FDT       0.018800
      9 C10          0.2280     0.0620     1.9860 cc         1 FDT       0.252300
     10 C11          1.4560     0.1270    -2.0010 c2         1 FDT      -0.159400
     11 C12          0.2920     0.1370    -4.2420 c          1 FDT       0.717200
     12 O13          1.1530     0.8520    -4.7390 o          1 FDT      -0.700500
     13 C14          0.6170     0.9360     2.9550 cd         1 FDT      -0.204000
     14 O15         -0.6490    -0.3140    -4.8870 o          1 FDT      -0.700500
     15 N16         -0.0410    -1.1650     2.5380 nc         1 FDT      -0.331000
     16 N17          0.1560    -1.0930     3.8300 nd         1 FDT      -0.226800
     17 N18          0.5590     0.1870     4.1080 na         1 FDT       0.117800
     18 C19          0.8700     0.6200     5.4760 c3         1 FDT       0.071900
     19 H1          -2.5830    -0.8880    -1.5850 h4         1 FDT       0.165000
     20 H3          -3.4470     0.0500     0.2730 h4         1 FDT      -0.052800
     21 H5           0.2130     1.4110     0.3680 h1         1 FDT       0.066700
     22 HN8         -1.0320    -1.6530    -2.9850 hn         1 FDT       0.526000
     23 H11          2.2750     0.7210    -2.4100 h4         1 FDT       0.223000
     24 H14          0.9120     1.9750     2.9130 h4         1 FDT       0.160000
     25 H191        -0.0140     0.4880     6.1120 h1         1 FDT       0.052700
     26 H192         1.6970     0.0190     5.8710 h1         1 FDT       0.052700
     27 H193         1.1590     1.6780     5.4730 h1         1 FDT       0.052700
@<TRIPOS>BOND
     1     1     2 2   
     2     1     7 1   
     3     1    19 1   
     4     2     3 1   
     5     2     4 1   
     6     3     6 2   
     7     3    20 1   
     8     4     5 1   
     9     4     9 1   
    10     4    21 1   
    11     5    10 1   
    12     7     8 1   
    13     7    22 1   
    14     8    10 2   
    15     8    11 1   
    16     9    13 2   
    17     9    15 1   
    18    10    23 1   
    19    11    12 1   
    20    11    14 1   
    21    13    17 1   
    22    13    24 1   
    23    15    16 2   
    24    16    17 1   
    25    17    18 1   
    26    18    25 1   
    27    18    26 1   
    28    18    27 1   
@<TRIPOS>SUBSTRUCTURE
     1 FDT         1 TEMP              0 ****  ****    0 ROOT
