@<TRIPOS>MOLECULE
FDT
   27    28     1     0     0
SMALL
bcc


@<TRIPOS>ATOM
      1 C1          -1.6030    -0.5400    -1.2910 c2         1 FDT       0.170000
      2 C2          -1.3180    -0.1620    -0.0100 ce         1 FDT      -0.375400
      3 C3          -2.4940    -0.1250     0.8330 c          1 FDT       0.606100
      4 C5           0.0040     0.3210     0.5040 c3         1 FDT       0.116300
      5 S6           1.4430    -0.5650    -0.2470 ss         1 FDT      -0.350700
      6 O7          -2.5820     0.3550     1.9480 o          1 FDT      -0.586100
      7 N8          -0.8940    -0.5650    -2.4290 nu         1 FDT      -0.576800
      8 C9           0.3860    -0.1590    -2.7570 ce         1 FDT       0.018800
      9 C10          0.1940     0.1250     1.9690 cc         1 FDT       0.317600
     10 C11          1.4230    -0.0730    -1.9170 c2         1 FDT      -0.109400
     11 C12          0.5450     0.1400    -4.2540 c          1 FDT       0.927800
     12 O13          1.6390     0.5840    -4.6290 o          1 FDT      -0.805800
     13 C14          0.5530     1.0360     2.9260 cd         1 FDT      -0.236600
     14 O15         -0.4580    -0.1190    -4.9470 o          1 FDT      -0.805800
     15 N16          0.0960    -1.0820     2.5590 nc         1 FDT      -0.331000
     16 N17          0.3530    -0.9590     3.8160 nd         1 FDT      -0.226800
     17 N18          0.6320     0.3100     4.0530 na         1 FDT       0.096400
     18 C19          0.9160     0.7670     5.3950 c3         1 FDT       0.042600
     19 H1          -2.6260    -0.8500    -1.4750 h4         1 FDT       0.115000
     20 H3          -3.3890    -0.5740     0.3590 h4         1 FDT      -0.052800
     21 H5           0.1560     1.3760     0.2680 h1         1 FDT       0.066700
     22 HN8         -1.4320    -0.7420    -3.2700 hn         1 FDT       0.470800
     23 H11          2.3660     0.2790    -2.3120 h4         1 FDT       0.173000
     24 H14          0.7390     2.0960     2.8910 h4         1 FDT       0.178000
     25 H191         0.0060     1.1150     5.8810 h1         1 FDT       0.052700
     26 H192         1.3370    -0.0550     5.9640 h1         1 FDT       0.052700
     27 H193         1.6350     1.5800     5.3550 h1         1 FDT       0.052700
@<TRIPOS>BOND
     1     1     2 2   
     2     1     7 1   
     3     1    19 1   
     4     2     3 1   
     5     2     4 1   
     6     3     6 2   
     7     3    20 1   
     8     4     5 1   
     9     4     9 1   
    10     4    21 1   
    11     5    10 1   
    12     7     8 1   
    13     7    22 1   
    14     8    10 2   
    15     8    11 1   
    16     9    13 2   
    17     9    15 1   
    18    10    23 1   
    19    11    12 1   
    20    11    14 1   
    21    13    17 1   
    22    13    24 1   
    23    15    16 2   
    24    16    17 1   
    25    17    18 1   
    26    18    25 1   
    27    18    26 1   
    28    18    27 1   
@<TRIPOS>SUBSTRUCTURE
     1 FDT         1 TEMP              0 ****  ****    0 ROOT
