@<TRIPOS>MOLECULE
FDU
   30    31     1     0     0
SMALL
abcg2


@<TRIPOS>ATOM
      1 O01         -3.8050    -2.4150     0.6970 oh         1 FDU      -0.709000
      2 C03         -3.5860    -1.3190    -0.1570 c3         1 FDU       0.165600
      3 C06         -2.8590    -0.2390     0.6050 c5         1 FDU       0.171300
      4 O08         -1.5550    -0.6830     0.9630 os         1 FDU      -0.422000
      5 C09         -2.6690     1.0420    -0.2050 c5         1 FDU       0.111300
      6 O11         -3.7960     1.8590    -0.0470 oh         1 FDU      -0.704000
      7 C13         -1.3900     1.6040     0.3970 c5         1 FDU       0.120300
      8 F15         -0.5950     2.2760    -0.5100 f          1 FDU      -0.239000
      9 C16         -0.6630     0.3820     0.9970 c5         1 FDU       0.323700
     10 N18          0.5850     0.0390     0.3260 n          1 FDU      -0.310000
     11 C19          0.5790    -0.3390    -1.0090 c          1 FDU       0.633000
     12 O20         -0.4310    -0.4440    -1.6640 o          1 FDU      -0.552000
     13 N21          1.8180    -0.5940    -1.5330 ns         1 FDU      -0.467500
     14 C23          3.0480    -0.5190    -0.9090 c          1 FDU       0.598200
     15 O24          4.0740    -0.7680    -1.5060 o          1 FDU      -0.507000
     16 C25          2.9630    -0.1250     0.4880 cc         1 FDU      -0.121900
     17 C26          1.7470     0.1280     1.0230 cd         1 FDU       0.022600
     18 C28          4.1550    -0.0210     1.2500 cg         1 FDU      -0.150300
     19 C29          5.1760     0.0700     1.8800 c1         1 FDU      -0.206000
     20 H1          -4.3050    -3.0770     0.2120 ho         1 FDU       0.508000
     21 H2          -2.9940    -1.5930    -1.0390 h1         1 FDU       0.039700
     22 H3          -4.5270    -0.8860    -0.5180 h1         1 FDU       0.039700
     23 H4          -3.4230     0.0070     1.5160 h1         1 FDU       0.077700
     24 H5          -2.4930     0.8010    -1.2580 h1         1 FDU       0.088700
     25 H6          -3.8330     2.4820    -0.7780 ho         1 FDU       0.520000
     26 H7          -1.6320     2.3030     1.2010 h1         1 FDU       0.078700
     27 H8          -0.3730     0.6030     2.0260 h2         1 FDU       0.073700
     28 H9           1.8220    -0.8680    -2.5090 hn         1 FDU       0.345500
     29 H10          1.6500     0.4200     2.0590 h4         1 FDU       0.211000
     30 H11          6.0790     0.1480     2.4410 ha         1 FDU       0.260000
@<TRIPOS>BOND
     1     1     2 1   
     2     1    20 1   
     3     2     3 1   
     4     2    21 1   
     5     2    22 1   
     6     3     4 1   
     7     3     5 1   
     8     3    23 1   
     9     4     9 1   
    10     5     6 1   
    11     5     7 1   
    12     5    24 1   
    13     6    25 1   
    14     7     8 1   
    15     7     9 1   
    16     7    26 1   
    17     9    10 1   
    18     9    27 1   
    19    10    11 1   
    20    10    17 1   
    21    11    12 2   
    22    11    13 1   
    23    13    14 1   
    24    13    28 1   
    25    14    15 2   
    26    14    16 1   
    27    16    17 2   
    28    16    18 1   
    29    17    29 1   
    30    18    19 3   
    31    19    30 1   
@<TRIPOS>SUBSTRUCTURE
     1 FDU         1 TEMP              0 ****  ****    0 ROOT
