@<TRIPOS>MOLECULE
FDU
   30    31     1     0     0
SMALL
No Charge or Current Charge


@<TRIPOS>ATOM
      1 O01         -4.2950    -2.3640     0.7120 oh         1 FDU      -0.709000
      2 C03         -3.9360    -1.2540    -0.1370 c3         1 FDU       0.165600
      3 C06         -2.9150    -0.3110     0.5590 c5         1 FDU       0.171300
      4 O08         -1.6160    -0.9370     0.6420 os         1 FDU      -0.422000
      5 C09         -2.6030     1.0020    -0.2210 c5         1 FDU       0.111300
      6 O11         -3.6750     1.9620    -0.1730 oh         1 FDU      -0.704000
      7 C13         -1.3300     1.4720     0.5500 c5         1 FDU       0.120300
      8 F15         -0.5160     2.2770    -0.2610 f          1 FDU      -0.239000
      9 C16         -0.6730     0.1030     0.9710 c5         1 FDU       0.323700
     10 N18          0.6470    -0.0690     0.2920 n          1 FDU      -0.310000
     11 C19          0.7200    -0.5250    -1.0450 c          1 FDU       0.633000
     12 O20         -0.2440    -0.7380    -1.7600 o          1 FDU      -0.552000
     13 N21          1.9730    -0.7020    -1.5430 ns         1 FDU      -0.467500
     14 C23          3.1690    -0.4890    -0.9320 c          1 FDU       0.598200
     15 O24          4.2180    -0.6970    -1.5250 o          1 FDU      -0.507000
     16 C25          3.0530     0.0050     0.4640 cc         1 FDU      -0.121900
     17 C26          1.8080     0.1960     1.0220 cd         1 FDU       0.022600
     18 C28          4.2490     0.2670     1.1940 cg         1 FDU      -0.150300
     19 C29          5.2500     0.5000     1.8420 c1         1 FDU      -0.206000
     20 H1          -4.8960    -2.9450     0.1880 ho         1 FDU       0.508000
     21 H2          -3.5010    -1.6110    -1.0800 h1         1 FDU       0.039700
     22 H3          -4.8320    -0.6700    -0.3870 h1         1 FDU       0.039700
     23 H4          -3.2730    -0.0860     1.5740 h1         1 FDU       0.077700
     24 H5          -2.3500     0.7590    -1.2630 h1         1 FDU       0.088700
     25 H6          -3.3860     2.7530    -0.6900 ho         1 FDU       0.520000
     26 H7          -1.5960     2.0520     1.4430 h1         1 FDU       0.078700
     27 H8          -0.4870     0.0970     2.0520 h2         1 FDU       0.073700
     28 H9           2.0190    -1.0280    -2.4950 hn         1 FDU       0.345500
     29 H10          1.6470     0.5530     2.0360 h4         1 FDU       0.211000
     30 H11          6.1380     0.7030     2.4090 ha         1 FDU       0.260000
@<TRIPOS>BOND
     1     1     2 1   
     2     1    20 1   
     3     2     3 1   
     4     2    21 1   
     5     2    22 1   
     6     3     4 1   
     7     3     5 1   
     8     3    23 1   
     9     4     9 1   
    10     5     6 1   
    11     5     7 1   
    12     5    24 1   
    13     6    25 1   
    14     7     8 1   
    15     7     9 1   
    16     7    26 1   
    17     9    10 1   
    18     9    27 1   
    19    10    11 1   
    20    10    17 1   
    21    11    12 2   
    22    11    13 1   
    23    13    14 1   
    24    13    28 1   
    25    14    15 2   
    26    14    16 1   
    27    16    17 2   
    28    16    18 1   
    29    17    29 1   
    30    18    19 3   
    31    19    30 1   
@<TRIPOS>SUBSTRUCTURE
     1 FDU         1 TEMP              0 ****  ****    0 ROOT
