@<TRIPOS>MOLECULE
FDV
   47    48     1     0     0
SMALL
No Charge or Current Charge


@<TRIPOS>ATOM
      1 N1           4.7910    -0.8030     1.6470 n          1 FDV      -0.299000
      2 C2           4.5750    -1.9300     0.8150 c          1 FDV       0.625000
      3 O2           3.6830    -2.0240    -0.0140 o          1 FDV      -0.567000
      4 N3           5.4600    -2.9530     0.9580 ns         1 FDV      -0.466500
      5 C4           6.5340    -3.0330     1.7820 c          1 FDV       0.580200
      6 O4           7.2410    -4.0300     1.7950 o          1 FDV      -0.619000
      7 C5           6.7450    -1.8320     2.6220 cc         1 FDV      -0.323400
      8 C7           7.9370    -1.8790     3.5500 c3         1 FDV       0.015100
      9 C6           5.8740    -0.7640     2.5290 cd         1 FDV      -0.084400
     10 PA          -1.7280     1.2740     1.2210 p5         1 FDV       1.452800
     11 PB          -4.1370     0.9100     0.1700 p5         1 FDV       1.501400
     12 PG          -4.7280    -1.1400    -1.7430 p5         1 FDV       1.294500
     13 C1           3.8390     0.3480     1.6350 c5         1 FDV       0.353700
     14 O1A         -1.2710     2.6740     0.9550 o          1 FDV      -0.872500
     15 O2B         -4.4680     2.3520     0.4240 o          1 FDV      -0.859500
     16 O1G         -6.0180    -1.6270    -1.1770 o          1 FDV      -0.898833
     17 C8           4.1980     1.2640     0.4200 c5         1 FDV      -0.151400
     18 O2A         -2.3440     1.1330     2.5750 o          1 FDV      -0.872500
     19 O1B         -4.8260    -0.0030     1.1360 o          1 FDV      -0.859500
     20 C4B         -3.8430     1.4100    -2.5980 c3         1 FDV      -0.006100
     21 O2G         -4.7700    -1.3850    -3.2150 o          1 FDV      -0.898833
     22 C3           2.9150     1.1750    -0.4550 c5         1 FDV       0.118300
     23 O3           2.7180     2.3680    -1.2230 oh         1 FDV      -0.709000
     24 O3A         -2.5790     0.6640     0.0350 os         1 FDV      -0.705800
     25 C3B         -4.6540     0.6360    -1.5350 c3         1 FDV      -0.669700
     26 O3G         -3.5620    -1.8590    -1.1540 o          1 FDV      -0.898833
     27 C9           1.8230     0.9380     0.6330 c5         1 FDV       0.169300
     28 O6           2.4600    -0.0440     1.4840 os         1 FDV      -0.392000
     29 C10          0.4820     0.3830     0.0630 c3         1 FDV       0.232600
     30 O5          -0.4910     0.2400     1.1130 os         1 FDV      -0.558400
     31 H1           5.3000    -3.7520     0.3670 hn         1 FDV       0.323500
     32 H2           7.8350    -2.6930     4.2790 hc         1 FDV       0.015700
     33 H3           8.8670    -2.0410     2.9900 hc         1 FDV       0.015700
     34 H4           8.0460    -0.9410     4.1090 hc         1 FDV       0.015700
     35 H5           5.9570     0.1500     3.1140 h4         1 FDV       0.175000
     36 H6           3.9710     0.8940     2.5780 h2         1 FDV       0.035700
     37 H9           4.3900     2.2880     0.7640 hc         1 FDV       0.035700
     38 H10          5.0910     0.9380    -0.1280 hc         1 FDV       0.035700
     39 H12         -3.8400     2.4860    -2.3750 hc         1 FDV      -0.002633
     40 H13         -2.8040     1.0610    -2.6390 hc         1 FDV      -0.002633
     41 H14         -4.2870     1.2830    -3.5950 hc         1 FDV      -0.002633
     42 H16          2.9680     0.2960    -1.1170 h1         1 FDV       0.075700
     43 H17          3.4780     2.4360    -1.8470 ho         1 FDV       0.471000
     44 H18         -5.6920     0.9720    -1.5660 hc         1 FDV       0.080700
     45 H19          1.6330     1.8520     1.2150 h1         1 FDV       0.058700
     46 H20          0.1220     1.0680    -0.7190 h1         1 FDV       0.020700
     47 H21          0.6680    -0.5890    -0.4140 h1         1 FDV       0.020700
@<TRIPOS>BOND
     1     1     2 1   
     2     1     9 1   
     3     1    13 1   
     4     2     3 2   
     5     2     4 1   
     6     4     5 1   
     7     4    31 1   
     8     5     6 2   
     9     5     7 1   
    10     7     8 1   
    11     7     9 2   
    12     8    32 1   
    13     8    33 1   
    14     8    34 1   
    15     9    35 1   
    16    10    14 1   
    17    10    18 1   
    18    10    24 1   
    19    10    30 1   
    20    11    15 1   
    21    11    19 1   
    22    11    24 1   
    23    11    25 1   
    24    12    16 1   
    25    12    21 1   
    26    12    25 1   
    27    12    26 1   
    28    13    17 1   
    29    13    28 1   
    30    13    36 1   
    31    17    22 1   
    32    17    37 1   
    33    17    38 1   
    34    20    25 1   
    35    20    39 1   
    36    20    40 1   
    37    20    41 1   
    38    22    23 1   
    39    22    27 1   
    40    22    42 1   
    41    23    43 1   
    42    25    44 1   
    43    27    28 1   
    44    27    29 1   
    45    27    45 1   
    46    29    30 1   
    47    29    46 1   
    48    29    47 1   
@<TRIPOS>SUBSTRUCTURE
     1 FDV         1 TEMP              0 ****  ****    0 ROOT
