@<TRIPOS>MOLECULE
FDV
   47    48     1     0     0
SMALL
bcc


@<TRIPOS>ATOM
      1 N1           4.3020    -0.2960     0.7960 n          1 FDV      -0.366000
      2 C2           4.2010    -0.3840    -0.5720 c          1 FDV       0.834500
      3 O2           3.8510     0.5350    -1.2820 o          1 FDV      -0.642500
      4 N3           4.5490    -1.6040    -1.0910 ns         1 FDV      -0.600500
      5 C4           4.9650    -2.7350    -0.4120 c          1 FDV       0.722700
      6 O4           5.2370    -3.7570    -1.0160 o          1 FDV      -0.694500
      7 C5           5.0330    -2.5740     1.0260 cc         1 FDV      -0.323400
      8 C7           5.4590    -3.7330     1.8650 c3         1 FDV       0.015100
      9 C6           4.6940    -1.3790     1.5400 cd         1 FDV      -0.034400
     10 PA          -1.5260     2.0530    -0.2630 p5         1 FDV       1.452800
     11 PB          -3.8170     0.3570     0.4330 p5         1 FDV       1.343600
     12 PG          -4.4780    -2.5300    -0.4260 p5         1 FDV       1.136700
     13 C1           3.8920     0.9280     1.4880 c5         1 FDV       0.330500
     14 O1A         -1.3550     1.3370    -1.5700 o          1 FDV      -0.872500
     15 O2B         -4.5060     1.1490    -0.6480 o          1 FDV      -0.859500
     16 O1G         -5.6050    -1.8510    -1.2150 o          1 FDV      -0.898833
     17 C8           4.5730     2.2240     1.0420 c5         1 FDV      -0.151400
     18 O2A         -1.9480     3.4950    -0.2680 o          1 FDV      -0.872500
     19 O1B         -4.4810     0.2080     1.7770 o          1 FDV      -0.859500
     20 C4B         -2.0440    -1.7700     0.7060 c3         1 FDV      -0.006100
     21 O2G         -3.7550    -3.6290    -1.2250 o          1 FDV      -0.898833
     22 C3           3.4690     3.0400     0.3700 c5         1 FDV       0.095100
     23 O3           3.4930     4.4150     0.6650 oh         1 FDV      -0.586800
     24 O3A         -2.3980     1.2090     0.8070 os         1 FDV      -0.705800
     25 C3B         -3.1580    -1.2190    -0.1790 c3         1 FDV      -0.354100
     26 O3G         -4.8960    -2.9910     0.9740 o          1 FDV      -0.898833
     27 C9           2.1930     2.4310     0.9570 c5         1 FDV       0.146100
     28 O6           2.5140     1.1020     1.3340 os         1 FDV      -0.345600
     29 C10          1.0460     2.4300    -0.0240 c3         1 FDV       0.209400
     30 O5          -0.1130     1.9330     0.5980 os         1 FDV      -0.535200
     31 H1           4.4790    -1.6760    -2.0990 hn         1 FDV       0.323500
     32 H2           4.7770    -4.5770     1.7510 hc         1 FDV       0.015700
     33 H3           6.4540    -4.0820     1.5860 hc         1 FDV       0.015700
     34 H4           5.4820    -3.4630     2.9190 hc         1 FDV       0.015700
     35 H5           4.7190    -1.2100     2.6080 h4         1 FDV       0.125000
     36 H6           4.1330     0.7300     2.5350 h2         1 FDV       0.035700
     37 H9           4.9120     2.7570     1.9320 hc         1 FDV       0.035700
     38 H10          5.4440     2.0570     0.4090 hc         1 FDV       0.035700
     39 H12         -1.1870    -1.0990     0.7790 hc         1 FDV      -0.002633
     40 H13         -2.4150    -1.9570     1.7140 hc         1 FDV      -0.002633
     41 H14         -1.6920    -2.7240     0.3090 hc         1 FDV      -0.002633
     42 H16          3.4930     2.8800    -0.7110 h1         1 FDV       0.075700
     43 H17          4.1720     4.8270     0.1220 ho         1 FDV       0.372000
     44 H18         -2.7410    -0.9870    -1.1660 hc         1 FDV       0.080700
     45 H19          1.9110     3.0070     1.8510 h1         1 FDV       0.058700
     46 H20          0.9070     3.4640    -0.3680 h1         1 FDV       0.020700
     47 H21          1.3220     1.8280    -0.8980 h1         1 FDV       0.020700
@<TRIPOS>BOND
     1     1     2 1   
     2     1     9 1   
     3     1    13 1   
     4     2     3 2   
     5     2     4 1   
     6     4     5 1   
     7     4    31 1   
     8     5     6 2   
     9     5     7 1   
    10     7     8 1   
    11     7     9 2   
    12     8    32 1   
    13     8    33 1   
    14     8    34 1   
    15     9    35 1   
    16    10    14 1   
    17    10    18 1   
    18    10    24 1   
    19    10    30 1   
    20    11    15 1   
    21    11    19 1   
    22    11    24 1   
    23    11    25 1   
    24    12    16 1   
    25    12    21 1   
    26    12    25 1   
    27    12    26 1   
    28    13    17 1   
    29    13    28 1   
    30    13    36 1   
    31    17    22 1   
    32    17    37 1   
    33    17    38 1   
    34    20    25 1   
    35    20    39 1   
    36    20    40 1   
    37    20    41 1   
    38    22    23 1   
    39    22    27 1   
    40    22    42 1   
    41    23    43 1   
    42    25    44 1   
    43    27    28 1   
    44    27    29 1   
    45    27    45 1   
    46    29    30 1   
    47    29    46 1   
    48    29    47 1   
@<TRIPOS>SUBSTRUCTURE
     1 FDV         1 TEMP              0 ****  ****    0 ROOT
