@<TRIPOS>MOLECULE
FDW
   40    43     1     0     0
SMALL
bcc


@<TRIPOS>ATOM
      1 C8           3.6400     2.0420     0.3510 c3         1 FDW       0.083000
      2 N2           2.5570     1.0880     0.1790 na         1 FDW       0.001200
      3 C9          -0.9310     0.5870    -0.1680 ca         1 FDW      -0.098900
      4 C10          1.3380    -0.7210    -0.1080 ca         1 FDW      -0.552500
      5 C11          2.6450    -0.2490     0.0610 ca         1 FDW       0.529800
      6 N3           1.2810     1.5080     0.1060 nc         1 FDW      -0.530100
      7 C13          3.7080     2.9930    -0.8350 c3         1 FDW      -0.103100
      8 C14          3.5020     2.7840     1.6730 c3         1 FDW      -0.103100
      9 C15          1.2370    -2.1160    -0.3390 ca         1 FDW       0.816200
     10 N4           3.7590    -0.9770     0.0880 nb         1 FDW      -0.835000
     11 C1           0.5270     0.4470    -0.0620 cd         1 FDW       0.442500
     12 C19          3.5230    -2.2730    -0.0840 ca         1 FDW       0.968900
     13 N6           2.3330    -2.8620    -0.3050 nb         1 FDW      -0.893000
     14 N7           0.0760    -2.7310    -0.5890 nv         1 FDW      -0.958500
     15 N8           4.5910    -3.1010    -0.0840 nv         1 FDW      -0.947500
     16 C27         -1.7700    -0.3040     0.5080 ca         1 FDW      -0.092000
     17 C28         -3.1400    -0.1260     0.3910 ca         1 FDW       0.093400
     18 C29         -3.6310     0.9290    -0.3730 ca         1 FDW       0.014100
     19 C30         -2.8380     1.8330    -1.0380 ca         1 FDW      -0.103000
     20 C31         -1.4650     1.6390    -0.9220 ca         1 FDW      -0.102000
     21 O43         -4.9920     0.8720    -0.3040 os         1 FDW      -0.308700
     22 C44         -5.2450    -0.1940     0.4890 cc         1 FDW       0.764500
     23 N9          -4.2010    -0.8220     0.9330 nd         1 FDW      -0.655100
     24 N10         -6.5300    -0.4980     0.6840 nv         1 FDW      -0.912800
     25 H1           4.5470     1.4350     0.3750 h1         1 FDW       0.080700
     26 H2           2.8150     3.6170    -0.8870 hc         1 FDW       0.046533
     27 H3           4.5730     3.6480    -0.7350 hc         1 FDW       0.046533
     28 H4           3.8020     2.4490    -1.7750 hc         1 FDW       0.046533
     29 H5           3.4690     2.0930     2.5160 hc         1 FDW       0.046533
     30 H6           4.3540     3.4490     1.8150 hc         1 FDW       0.046533
     31 H7           2.5960     3.3900     1.6880 hc         1 FDW       0.046533
     32 H8          -0.7600    -2.2100    -0.7850 hn         1 FDW       0.445800
     33 H9           0.0860    -3.7040    -0.8470 hn         1 FDW       0.445800
     34 H10          5.4640    -2.7550     0.2720 hn         1 FDW       0.436300
     35 H11          4.4290    -4.0890    -0.0010 hn         1 FDW       0.436300
     36 H12         -1.3670    -1.0930     1.1310 ha         1 FDW       0.159000
     37 H13         -3.2470     2.6470    -1.6210 ha         1 FDW       0.151000
     38 H14         -0.7930     2.3130    -1.4350 ha         1 FDW       0.150000
     39 H15         -6.7460    -1.1740     1.3970 hn         1 FDW       0.447800
     40 H16         -7.2400     0.1880     0.4890 hn         1 FDW       0.447800
@<TRIPOS>BOND
     1     1     2 1   
     2     1     7 1   
     3     1     8 1   
     4     1    25 1   
     5     2     5 1   
     6     2     6 1   
     7     3    11 1   
     8     3    16 ar  
     9     3    20 ar  
    10     4     5 ar  
    11     4     9 ar  
    12     4    11 1   
    13     5    10 ar  
    14     6    11 2   
    15     7    26 1   
    16     7    27 1   
    17     7    28 1   
    18     8    29 1   
    19     8    30 1   
    20     8    31 1   
    21     9    13 ar  
    22     9    14 1   
    23    10    12 ar  
    24    12    13 ar  
    25    12    15 1   
    26    14    32 1   
    27    14    33 1   
    28    15    34 1   
    29    15    35 1   
    30    16    17 ar  
    31    16    36 1   
    32    17    18 ar  
    33    17    23 1   
    34    18    19 ar  
    35    18    21 1   
    36    19    20 ar  
    37    19    37 1   
    38    20    38 1   
    39    21    22 1   
    40    22    23 2   
    41    22    24 1   
    42    24    39 1   
    43    24    40 1   
@<TRIPOS>SUBSTRUCTURE
     1 FDW         1 TEMP              0 ****  ****    0 ROOT
