@<TRIPOS>MOLECULE
FDW
   40    43     1     0     0
SMALL
No Charge or Current Charge


@<TRIPOS>ATOM
      1 C8           3.7120     2.0820     0.4550 c3         1 FDW       0.112300
      2 N2           2.5460     1.1960     0.2300 na         1 FDW      -0.028100
      3 C9          -0.9480     0.5830    -0.2610 ca         1 FDW      -0.098900
      4 C10          1.3630    -0.6260    -0.1290 ca         1 FDW      -0.421900
      5 C11          2.6320    -0.1840     0.1120 ca         1 FDW       0.201500
      6 N3           1.2380     1.6610     0.0610 nc         1 FDW      -0.530100
      7 C13          4.0080     2.9610    -0.7800 c3         1 FDW      -0.103100
      8 C14          3.5560     2.9270     1.7380 c3         1 FDW      -0.103100
      9 C15          1.1520    -1.9710    -0.4040 ca         1 FDW       0.487900
     10 N4           3.6740    -1.0350     0.1450 nb         1 FDW      -0.309000
     11 C1           0.5190     0.5470    -0.1210 cd         1 FDW       0.442500
     12 C19          3.3650    -2.3210    -0.0900 ca         1 FDW       0.442900
     13 N6           2.1640    -2.8430    -0.3760 nb         1 FDW      -0.367000
     14 N7          -0.0380    -2.4860    -0.7650 nv         1 FDW      -1.068900
     15 N8           4.3910    -3.1960    -0.0560 nv         1 FDW      -1.057900
     16 C27         -1.7650    -0.2830     0.5090 ca         1 FDW      -0.074000
     17 C28         -3.1570    -0.1740     0.3910 ca         1 FDW       0.093400
     18 C29         -3.7250     0.7580    -0.4310 ca         1 FDW       0.014100
     19 C30         -2.9620     1.6570    -1.1840 ca         1 FDW      -0.085000
     20 C31         -1.5580     1.5690    -1.0820 ca         1 FDW      -0.084000
     21 O43         -5.0770     0.6840    -0.3760 os         1 FDW      -0.308700
     22 C44         -5.2200    -0.3500     0.5240 cc         1 FDW       0.764500
     23 N9          -4.1320    -0.9100     1.0330 nd         1 FDW      -0.655100
     24 N10         -6.4470    -0.7230     0.8730 nv         1 FDW      -1.023200
     25 H1           4.5880     1.4370     0.6050 h1         1 FDW       0.080700
     26 H2           3.1780     3.6480    -0.9800 hc         1 FDW       0.046533
     27 H3           4.9170     3.5550    -0.6230 hc         1 FDW       0.046533
     28 H4           4.1600     2.3360    -1.6680 hc         1 FDW       0.046533
     29 H5           3.3850     2.2790     2.6060 hc         1 FDW       0.046533
     30 H6           4.4620     3.5140     1.9260 hc         1 FDW       0.046533
     31 H7           2.7090     3.6190     1.6530 hc         1 FDW       0.046533
     32 H8          -0.7550    -1.8480    -1.0910 hn         1 FDW       0.501000
     33 H9          -0.0430    -3.4180    -1.1690 hn         1 FDW       0.501000
     34 H10          5.2600    -2.8940     0.3770 hn         1 FDW       0.491500
     35 H11          4.1730    -4.1870     0.0000 hn         1 FDW       0.491500
     36 H12         -1.3300    -1.0100     1.1900 ha         1 FDW       0.141000
     37 H13         -3.4370     2.4010    -1.8180 ha         1 FDW       0.133000
     38 H14         -0.9380     2.2620    -1.6480 ha         1 FDW       0.132000
     39 H15         -6.4930    -1.2310     1.7470 hn         1 FDW       0.503000
     40 H16         -7.1710    -0.0320     0.7250 hn         1 FDW       0.503000
@<TRIPOS>BOND
     1     1     2 1   
     2     1     7 1   
     3     1     8 1   
     4     1    25 1   
     5     2     5 1   
     6     2     6 1   
     7     3    11 1   
     8     3    16 ar  
     9     3    20 ar  
    10     4     5 ar  
    11     4     9 ar  
    12     4    11 1   
    13     5    10 ar  
    14     6    11 2   
    15     7    26 1   
    16     7    27 1   
    17     7    28 1   
    18     8    29 1   
    19     8    30 1   
    20     8    31 1   
    21     9    13 ar  
    22     9    14 1   
    23    10    12 ar  
    24    12    13 ar  
    25    12    15 1   
    26    14    32 1   
    27    14    33 1   
    28    15    34 1   
    29    15    35 1   
    30    16    17 ar  
    31    16    36 1   
    32    17    18 ar  
    33    17    23 1   
    34    18    19 ar  
    35    18    21 1   
    36    19    20 ar  
    37    19    37 1   
    38    20    38 1   
    39    21    22 1   
    40    22    23 2   
    41    22    24 1   
    42    24    39 1   
    43    24    40 1   
@<TRIPOS>SUBSTRUCTURE
     1 FDW         1 TEMP              0 ****  ****    0 ROOT
