@<TRIPOS>MOLECULE
FDX
   49    50     1     0     0
SMALL
bcc


@<TRIPOS>ATOM
      1 C2          25.2000    40.2400    15.8150 c5         1 FDX      -0.050900
      2 C3          23.7180    40.4580    15.6790 ce         1 FDX       0.373300
      3 C1          25.5300    39.4360    14.5560 c5         1 FDX      -0.109400
      4 C1A         24.7760    37.8280    17.3020 c5         1 FDX      -0.013600
      5 C2A         25.3410    36.8950    18.3770 c5         1 FDX       0.153800
      6 C31         22.9610    41.4180    16.5880 c          1 FDX       0.856300
      7 C4A         23.2770    37.7940    17.6060 c5         1 FDX      -0.089400
      8 C5          24.1500    38.9930    14.0330 c5         1 FDX       0.081500
      9 C5A         23.0530    36.4100    18.2510 c5         1 FDX       0.078500
     10 C6          23.9890    39.1270    12.5110 c3         1 FDX      -0.066700
     11 C61         24.7460    37.9790    11.8470 c3         1 FDX       0.150400
     12 C6A         22.3330    36.4880    19.6000 c          1 FDX       0.681100
     13 C7          22.5030    39.2090    12.1390 c3         1 FDX       0.362900
     14 C8A         21.3060    35.3710    21.4590 c3         1 FDX       0.098300
     15 C9A         22.1850    34.0120    19.6120 c3         1 FDX       0.098300
     16 N3A         24.3800    35.8100    18.4740 n7         1 FDX      -0.796200
     17 N4          23.1630    39.7880    14.7570 n2         1 FDX      -0.621900
     18 N7A         21.8780    35.3300    20.1270 n          1 FDX      -0.475800
     19 O31         23.5990    42.4450    16.8810 o          1 FDX      -0.794800
     20 O32         21.8110    41.0950    16.9210 o          1 FDX      -0.794800
     21 O62         25.1580    38.3410    10.5500 oh         1 FDX      -0.588800
     22 O6A         22.1850    37.5500    20.1920 o          1 FDX      -0.578100
     23 O7          22.3660    39.0740    10.7670 oh         1 FDX      -0.622800
     24 S21         25.5920    39.4440    17.4090 ss         1 FDX      -0.303200
     25 H1          25.7430    41.1830    15.8700 h1         1 FDX       0.117700
     26 H2          26.2080    38.6040    14.7430 hc         1 FDX       0.047200
     27 H3          26.0190    40.0890    13.8300 hc         1 FDX       0.047200
     28 H4          24.9900    37.3950    16.3220 h1         1 FDX       0.049700
     29 H5          26.3340    36.5150    18.1390 h1         1 FDX       0.062700
     30 H6          25.4070    37.4210    19.3350 h1         1 FDX       0.062700
     31 H7          23.0200    38.5940    18.2980 hc         1 FDX       0.101700
     32 H8          22.6660    37.9200    16.7150 hc         1 FDX       0.101700
     33 H9          23.9630    37.9430    14.2970 h1         1 FDX       0.048700
     34 H10         22.4790    35.7760    17.5750 h1         1 FDX       0.050700
     35 H11         24.4590    40.0700    12.2060 hc         1 FDX       0.070700
     36 H12         24.1130    37.0810    11.8450 h1         1 FDX       0.013700
     37 H13         25.6190    37.7300    12.4660 h1         1 FDX       0.013700
     38 H14         22.1280    40.1890    12.4690 h2         1 FDX       0.039700
     39 H16         20.7820    34.4370    21.6480 h1         1 FDX       0.032033
     40 H17         22.0700    35.4930    22.2320 h1         1 FDX       0.032033
     41 H18         20.5910    36.1850    21.5560 h1         1 FDX       0.032033
     42 H19         21.3420    33.3490    19.8020 h1         1 FDX       0.032033
     43 H20         22.3500    34.0200    18.5400 h1         1 FDX       0.032033
     44 H21         23.0700    33.5850    20.0880 h1         1 FDX       0.032033
     45 H22         24.5660    35.1390    17.7400 hn         1 FDX       0.338800
     46 H25         25.6330    37.5960    10.1730 ho         1 FDX       0.387000
     47 H26         21.4610    39.3020    10.5280 ho         1 FDX       0.425000
     48 O1          21.7480    38.1970    12.7620 oh         1 FDX      -0.622800
     49 H15         21.6160    38.4800    13.6770 ho         1 FDX       0.425000
@<TRIPOS>BOND
     1     1     2 1   
     2     1     3 1   
     3     1    24 1   
     4     1    25 1   
     5     2     6 1   
     6     2    17 2   
     7     3     8 1   
     8     3    26 1   
     9     3    27 1   
    10     4     5 1   
    11     4     7 1   
    12     4    24 1   
    13     4    28 1   
    14     5    16 1   
    15     5    29 1   
    16     5    30 1   
    17     6    19 1   
    18     6    20 1   
    19     7     9 1   
    20     7    31 1   
    21     7    32 1   
    22     8    10 1   
    23     8    17 1   
    24     8    33 1   
    25     9    12 1   
    26     9    16 1   
    27     9    34 1   
    28    10    11 1   
    29    10    13 1   
    30    10    35 1   
    31    11    21 1   
    32    11    36 1   
    33    11    37 1   
    34    12    18 1   
    35    12    22 2   
    36    13    23 1   
    37    13    38 1   
    38    13    48 1   
    39    14    18 1   
    40    14    39 1   
    41    14    40 1   
    42    14    41 1   
    43    15    18 1   
    44    15    42 1   
    45    15    43 1   
    46    15    44 1   
    47    16    45 1   
    48    21    46 1   
    49    23    47 1   
    50    48    49 1   
@<TRIPOS>SUBSTRUCTURE
     1 FDX         1 TEMP              0 ****  ****    0 ROOT
