@<TRIPOS>MOLECULE
FDX
   49    50     1     0     0
SMALL
No Charge or Current Charge


@<TRIPOS>ATOM
      1 C2          24.0780    38.9100    15.5390 c5         1 FDX      -0.003000
      2 C3          22.7690    38.8870    14.7400 ce         1 FDX       0.373300
      3 C1          24.9770    39.5420    14.4510 c5         1 FDX      -0.109400
      4 C1A         23.4190    36.7230    17.1030 c5         1 FDX       0.034300
      5 C2A         23.5330    35.2080    17.4480 c5         1 FDX       0.153800
      6 C31         21.4990    39.3210    15.5070 c          1 FDX       0.645700
      7 C4A         23.7770    37.3630    18.4640 c5         1 FDX      -0.089400
      8 C5          24.3750    38.9060    13.1570 c5         1 FDX       0.081500
      9 C5A         22.8820    36.4900    19.3820 c5         1 FDX       0.078500
     10 C6          24.6850    39.6670    11.8280 c3         1 FDX      -0.066700
     11 C61         26.2200    39.8030    11.5740 c3         1 FDX       0.173600
     12 C6A         23.1870    36.7930    20.9130 c          1 FDX       0.614100
     13 C7          23.9110    39.0380    10.6230 c3         1 FDX       0.409300
     14 C8A         22.4790    36.3010    23.2680 c3         1 FDX       0.098300
     15 C9A         20.9980    35.5550    21.3630 c3         1 FDX       0.098300
     16 N3A         23.2010    35.0960    18.9000 n7         1 FDX      -0.851400
     17 N4          22.9110    38.8830    13.4360 n2         1 FDX      -0.621900
     18 N7A         22.2700    36.1740    21.8090 n          1 FDX      -0.408800
     19 O31         21.5550    39.5130    16.7180 o          1 FDX      -0.689500
     20 O32         20.4480    39.4710    14.8870 o          1 FDX      -0.689500
     21 O62         26.5310    40.9710    10.8010 oh         1 FDX      -0.651000
     22 O6A         24.1290    37.4610    21.3310 o          1 FDX      -0.578100
     23 O7          24.0140    39.8250     9.4500 oh         1 FDX      -0.685000
     24 S21         24.7210    37.1650    15.8410 ss         1 FDX      -0.399000
     25 H1          24.0440    39.5040    16.4610 h1         1 FDX       0.117700
     26 H2          26.0390    39.3170    14.5960 hc         1 FDX       0.047200
     27 H3          24.8700    40.6330    14.4440 hc         1 FDX       0.047200
     28 H4          22.4070    36.9790    16.7640 h1         1 FDX       0.049700
     29 H5          22.8580    34.6050    16.8240 h1         1 FDX       0.062700
     30 H6          24.5550    34.8410    17.2740 h1         1 FDX       0.062700
     31 H7          24.8420    37.2550    18.7030 hc         1 FDX       0.101700
     32 H8          23.5240    38.4270    18.5200 hc         1 FDX       0.101700
     33 H9          24.7330    37.8720    13.0440 h1         1 FDX       0.048700
     34 H10         21.8300    36.7330    19.1800 h1         1 FDX       0.050700
     35 H11         24.2930    40.6830    11.9530 hc         1 FDX       0.070700
     36 H12         26.6040    38.9000    11.0810 h1         1 FDX       0.013700
     37 H13         26.7470    39.8790    12.5330 h1         1 FDX       0.013700
     38 H14         22.8480    38.9430    10.8810 h2         1 FDX       0.039700
     39 H16         21.8570    35.5790    23.8130 h1         1 FDX       0.032033
     40 H17         23.5310    36.1070    23.5140 h1         1 FDX       0.032033
     41 H18         22.2150    37.3170    23.5900 h1         1 FDX       0.032033
     42 H19         20.3960    35.2470    22.2280 h1         1 FDX       0.032033
     43 H20         20.4120    36.2770    20.7810 h1         1 FDX       0.032033
     44 H21         21.2030    34.6670    20.7530 h1         1 FDX       0.032033
     45 H22         22.3970    34.4720    19.0450 hn         1 FDX       0.394000
     46 H25         27.4930    40.9360    10.6080 ho         1 FDX       0.426000
     47 H26         23.2320    39.6020     8.9040 ho         1 FDX       0.464000
     48 O1          24.4240    37.7600    10.2840 oh         1 FDX      -0.685000
     49 H15         23.6540    37.2250     9.9990 ho         1 FDX       0.464000
@<TRIPOS>BOND
     1     1     2 1   
     2     1     3 1   
     3     1    24 1   
     4     1    25 1   
     5     2     6 1   
     6     2    17 2   
     7     3     8 1   
     8     3    26 1   
     9     3    27 1   
    10     4     5 1   
    11     4     7 1   
    12     4    24 1   
    13     4    28 1   
    14     5    16 1   
    15     5    29 1   
    16     5    30 1   
    17     6    19 1   
    18     6    20 1   
    19     7     9 1   
    20     7    31 1   
    21     7    32 1   
    22     8    10 1   
    23     8    17 1   
    24     8    33 1   
    25     9    12 1   
    26     9    16 1   
    27     9    34 1   
    28    10    11 1   
    29    10    13 1   
    30    10    35 1   
    31    11    21 1   
    32    11    36 1   
    33    11    37 1   
    34    12    18 1   
    35    12    22 2   
    36    13    23 1   
    37    13    38 1   
    38    13    48 1   
    39    14    18 1   
    40    14    39 1   
    41    14    40 1   
    42    14    41 1   
    43    15    18 1   
    44    15    42 1   
    45    15    43 1   
    46    15    44 1   
    47    16    45 1   
    48    21    46 1   
    49    23    47 1   
    50    48    49 1   
@<TRIPOS>SUBSTRUCTURE
     1 FDX         1 TEMP              0 ****  ****    0 ROOT
