@<TRIPOS>MOLECULE
FDY
   44    45     1     0     0
SMALL
No Charge or Current Charge


@<TRIPOS>ATOM
      1 C2          -4.8430    -1.8700    -0.3580 c          1 FDY       0.621000
      2 C4          -6.8460    -2.6600    -1.5210 c          1 FDY       0.576200
      3 C5          -6.8300    -1.4100    -2.3120 cc         1 FDY      -0.329400
      4 C6          -5.8400    -0.4740    -2.1010 cd         1 FDY      -0.085400
      5 O4          -7.6740    -3.5500    -1.6350 o          1 FDY      -0.628000
      6 C7          -7.9360    -1.2520    -3.3270 c3         1 FDY       0.016100
      7 N3          -5.8400    -2.7580    -0.6160 ns         1 FDY      -0.470500
      8 O2          -4.0390    -2.1130     0.5280 o          1 FDY      -0.567000
      9 N1          -4.8470    -0.6930    -1.1450 n          1 FDY      -0.294000
     10 C1          -3.7690     0.3240    -1.0040 c5         1 FDY       0.350700
     11 C8          -4.1010     1.2170     0.2350 c5         1 FDY      -0.154400
     12 C3          -2.8830     0.9610     1.1660 c5         1 FDY       0.118300
     13 O3          -2.5960     2.0940     1.9910 oh         1 FDY      -0.703000
     14 O6          -2.4630    -0.2390    -0.7850 os         1 FDY      -0.391000
     15 C9          -1.7800     0.6630     0.1090 c5         1 FDY       0.165300
     16 C10         -0.4870     0.0180     0.6920 c3         1 FDY       0.244600
     17 O5           0.3880    -0.4510    -0.3500 os         1 FDY      -0.556400
     18 PA           1.3790     0.5500    -1.1330 p5         1 FDY       1.466800
     19 O1A          0.6960     1.8350    -1.4650 o          1 FDY      -0.873500
     20 O2A          1.8990    -0.1470    -2.3470 o          1 FDY      -0.873500
     21 O3A          2.4300     0.6980     0.0290 os         1 FDY      -0.707800
     22 PB           3.8620     1.1650    -0.4560 p5         1 FDY       1.498400
     23 O2B          3.7840     2.3170    -1.4130 o          1 FDY      -0.842500
     24 O1B          4.7090     0.0530    -0.9920 o          1 FDY      -0.842500
     25 C3B          4.4570     1.8630     1.1260 c3         1 FDY      -0.384700
     26 F2B          5.3920     2.8630     0.9910 f          1 FDY      -0.283000
     27 PG           5.0560     0.4210     2.0610 p5         1 FDY       1.288500
     28 O3G          4.1230    -0.7400     2.0310 o          1 FDY      -0.897500
     29 O2G          6.4150     0.0280     1.5850 o          1 FDY      -0.897500
     30 O1G          5.1950     0.8840     3.4750 o          1 FDY      -0.897500
     31 H1          -5.7550     0.4670    -2.6400 h4         1 FDY       0.180000
     32 H2          -8.9200    -1.2720    -2.8420 hc         1 FDY       0.015033
     33 H3          -7.8490    -0.3000    -3.8630 hc         1 FDY       0.015033
     34 H4          -7.9050    -2.0570    -4.0710 hc         1 FDY       0.015033
     35 H5          -5.8330    -3.5950    -0.0570 hn         1 FDY       0.317500
     36 H6          -3.7620     0.9260    -1.9200 h2         1 FDY       0.038700
     37 H7          -4.1680     2.2680    -0.0690 hc         1 FDY       0.037200
     38 H8          -5.0510     0.9630     0.7200 hc         1 FDY       0.037200
     39 H9          -3.0540     0.0670     1.7850 h1         1 FDY       0.069700
     40 H10         -3.3950     2.2580     2.5430 ho         1 FDY       0.471000
     41 H11         -1.5260     1.5790    -0.4370 h1         1 FDY       0.064700
     42 H12          0.0230     0.7550     1.3260 h1         1 FDY       0.015700
     43 H13         -0.7750    -0.8240     1.3360 h1         1 FDY       0.015700
     44 H16          3.5880     2.2690     1.6520 h1         1 FDY       0.039700
@<TRIPOS>BOND
     1     1     7 1   
     2     1     8 2   
     3     1     9 1   
     4     2     3 1   
     5     2     5 2   
     6     2     7 1   
     7     3     4 2   
     8     3     6 1   
     9     4     9 1   
    10     4    31 1   
    11     6    32 1   
    12     6    33 1   
    13     6    34 1   
    14     7    35 1   
    15     9    10 1   
    16    10    11 1   
    17    10    14 1   
    18    10    36 1   
    19    11    12 1   
    20    11    37 1   
    21    11    38 1   
    22    12    13 1   
    23    12    15 1   
    24    12    39 1   
    25    13    40 1   
    26    14    15 1   
    27    15    16 1   
    28    15    41 1   
    29    16    17 1   
    30    16    42 1   
    31    16    43 1   
    32    17    18 1   
    33    18    19 1   
    34    18    20 1   
    35    18    21 1   
    36    21    22 1   
    37    22    23 1   
    38    22    24 1   
    39    22    25 1   
    40    25    26 1   
    41    25    27 1   
    42    25    44 1   
    43    27    28 1   
    44    27    29 1   
    45    27    30 1   
@<TRIPOS>SUBSTRUCTURE
     1 FDY         1 TEMP              0 ****  ****    0 ROOT
