@<TRIPOS>MOLECULE
FDY
   44    45     1     0     0
SMALL
abcg2


@<TRIPOS>ATOM
      1 C2          -4.8110    -0.3620     0.7380 c          1 FDY       0.621000
      2 C4          -5.8350    -2.6090     0.5460 c          1 FDY       0.576200
      3 C5          -5.7030    -2.5050    -0.8930 cc         1 FDY      -0.329400
      4 C6          -5.1610    -1.3810    -1.3930 cd         1 FDY      -0.085400
      5 O4          -6.3150    -3.5590     1.1370 o          1 FDY      -0.628000
      6 C7          -6.1650    -3.6400    -1.7460 c3         1 FDY       0.016100
      7 N3          -5.3650    -1.5110     1.2420 ns         1 FDY      -0.470500
      8 O2          -4.4290     0.5350     1.4600 o          1 FDY      -0.567000
      9 N1          -4.7370    -0.3210    -0.6350 n          1 FDY      -0.294000
     10 C1          -4.1340     0.8330    -1.3000 c5         1 FDY       0.350700
     11 C8          -4.7500     2.1980    -0.9760 c5         1 FDY      -0.154400
     12 C3          -3.6470     2.9590    -0.2400 c5         1 FDY       0.118300
     13 O3          -3.5340     4.3160    -0.5870 oh         1 FDY      -0.703000
     14 O6          -2.7770     0.8930    -0.9690 os         1 FDY      -0.391000
     15 C9          -2.3820     2.2260    -0.6880 c5         1 FDY       0.165300
     16 C10         -1.2950     2.2270     0.3580 c3         1 FDY       0.244600
     17 O5          -0.1640     1.5520    -0.1390 os         1 FDY      -0.556400
     18 PA           1.3030     1.9010     0.5510 p5         1 FDY       1.466800
     19 O1A          1.1550     1.8130     2.0410 o          1 FDY      -0.873500
     20 O2A          1.8390     3.1570    -0.0680 o          1 FDY      -0.873500
     21 O3A          2.0230     0.5820    -0.0600 os         1 FDY      -0.707800
     22 PB           3.6820     0.3780    -0.2530 p5         1 FDY       1.498400
     23 O2B          4.3620     1.1780     0.8200 o          1 FDY      -0.842500
     24 O1B          3.9820     0.6260    -1.7040 o          1 FDY      -0.842500
     25 C3B          3.7520    -1.4180     0.0810 c3         1 FDY      -0.384700
     26 F2B          3.5220    -1.5810     1.4690 f          1 FDY      -0.283000
     27 PG           5.3420    -2.2810    -0.4210 p5         1 FDY       1.288500
     28 O3G          5.1540    -2.5270    -1.9190 o          1 FDY      -0.897500
     29 O2G          6.4730    -1.3120    -0.0720 o          1 FDY      -0.897500
     30 O1G          5.3420    -3.5610     0.4210 o          1 FDY      -0.897500
     31 H1          -5.0360    -1.2530    -2.4600 h4         1 FDY       0.180000
     32 H2          -7.2370    -3.8100    -1.6350 hc         1 FDY       0.015033
     33 H3          -5.9650    -3.4420    -2.7990 hc         1 FDY       0.015033
     34 H4          -5.6610    -4.5690    -1.4780 hc         1 FDY       0.015033
     35 H5          -5.4310    -1.5490     2.2520 hn         1 FDY       0.317500
     36 H6          -4.2530     0.6210    -2.3660 h2         1 FDY       0.038700
     37 H7          -4.9730     2.7100    -1.9140 hc         1 FDY       0.037200
     38 H8          -5.6800     2.1260    -0.4140 hc         1 FDY       0.037200
     39 H9          -3.7760     2.8460     0.8400 h1         1 FDY       0.069700
     40 H10         -4.2370     4.7990    -0.1440 ho         1 FDY       0.471000
     41 H11         -2.0100     2.7040    -1.6060 h1         1 FDY       0.064700
     42 H12         -1.0790     3.2740     0.6050 h1         1 FDY       0.015700
     43 H13         -1.6700     1.7470     1.2700 h1         1 FDY       0.015700
     44 H16          2.9150    -1.9070    -0.4300 h1         1 FDY       0.039700
@<TRIPOS>BOND
     1     1     7 1   
     2     1     8 2   
     3     1     9 1   
     4     2     3 1   
     5     2     5 2   
     6     2     7 1   
     7     3     4 2   
     8     3     6 1   
     9     4     9 1   
    10     4    31 1   
    11     6    32 1   
    12     6    33 1   
    13     6    34 1   
    14     7    35 1   
    15     9    10 1   
    16    10    11 1   
    17    10    14 1   
    18    10    36 1   
    19    11    12 1   
    20    11    37 1   
    21    11    38 1   
    22    12    13 1   
    23    12    15 1   
    24    12    39 1   
    25    13    40 1   
    26    14    15 1   
    27    15    16 1   
    28    15    41 1   
    29    16    17 1   
    30    16    42 1   
    31    16    43 1   
    32    17    18 1   
    33    18    19 1   
    34    18    20 1   
    35    18    21 1   
    36    21    22 1   
    37    22    23 1   
    38    22    24 1   
    39    22    25 1   
    40    25    26 1   
    41    25    27 1   
    42    25    44 1   
    43    27    28 1   
    44    27    29 1   
    45    27    30 1   
@<TRIPOS>SUBSTRUCTURE
     1 FDY         1 TEMP              0 ****  ****    0 ROOT
