@<TRIPOS>MOLECULE
FDZ
   27    28     1     0     0
SMALL
No Charge or Current Charge


@<TRIPOS>ATOM
      1 C01          2.5550    -2.6770     0.2460 ca         1 FDZ      -0.051000
      2 C02          1.1530    -2.6270     0.1930 ca         1 FDZ      -0.180000
      3 C03          0.4820    -1.3990     0.0580 ca         1 FDZ       0.015000
      4 C04          1.2450    -0.2130    -0.0240 ca         1 FDZ      -0.140000
      5 C05          2.6480    -0.2510     0.0280 ca         1 FDZ       0.167100
      6 C06          3.3050    -1.4930     0.1640 ca         1 FDZ      -0.178000
      7 O07          3.3140     0.9580    -0.0590 os         1 FDZ      -0.404100
      8 C08          4.7480     1.0940    -0.0220 c3         1 FDZ       0.524000
      9 F09          5.3490     0.4370    -1.0410 f          1 FDZ      -0.105333
     10 F10          5.1050     2.3920    -0.1280 f          1 FDZ      -0.105333
     11 F11          5.2740     0.6360     1.1380 f          1 FDZ      -0.105333
     12 N12         -0.9390    -1.4300     0.0110 ns         1 FDZ      -0.144000
     13 C13         -1.8890    -0.4270    -0.1130 c          1 FDZ       0.659100
     14 O14         -1.6340     0.7650    -0.2130 o          1 FDZ      -0.587100
     15 N15         -3.1830    -0.9200    -0.1130 ns         1 FDZ      -0.384100
     16 C16         -4.3830    -0.2060    -0.2200 cc         1 FDZ      -0.097400
     17 C17         -5.6120    -0.8150    -0.2070 cd         1 FDZ       0.133900
     18 N18         -6.6640     0.0770    -0.3250 nd         1 FDZ      -0.275000
     19 N19         -6.2690     1.3220    -0.4240 nc         1 FDZ      -0.184100
     20 S20         -4.6050     1.5180    -0.3840 ss         1 FDZ       0.355100
     21 H1           3.0620    -3.6350     0.3510 ha         1 FDZ       0.123000
     22 H2           0.5870    -3.5540     0.2570 ha         1 FDZ       0.117000
     23 H3           0.7720     0.7570    -0.1280 ha         1 FDZ       0.172000
     24 H4           4.3870    -1.5660     0.2080 ha         1 FDZ       0.140000
     25 H5          -1.3230    -2.3620     0.0830 hn         1 FDZ       0.156000
     26 H6          -5.8070    -1.8770    -0.1170 h4         1 FDZ       0.049100
     27 H10         -3.2430    -1.9280    -0.0230 hn         1 FDZ       0.331500
@<TRIPOS>BOND
     1     1     2 ar  
     2     1     6 ar  
     3     1    21 1   
     4     2     3 ar  
     5     2    22 1   
     6     3     4 ar  
     7     3    12 1   
     8     4     5 ar  
     9     4    23 1   
    10     5     6 ar  
    11     5     7 1   
    12     6    24 1   
    13     7     8 1   
    14     8     9 1   
    15     8    10 1   
    16     8    11 1   
    17    12    13 1   
    18    12    25 1   
    19    13    14 2   
    20    13    15 1   
    21    15    16 1   
    22    15    27 1   
    23    16    17 2   
    24    16    20 1   
    25    17    18 1   
    26    17    26 1   
    27    18    19 2   
    28    19    20 1   
@<TRIPOS>SUBSTRUCTURE
     1 FDZ         1 TEMP              0 ****  ****    0 ROOT
