@<TRIPOS>MOLECULE
FDZ
   27    28     1     0     0
SMALL
abcg2


@<TRIPOS>ATOM
      1 C01          2.5850    -2.6730     0.3230 ca         1 FDZ      -0.051000
      2 C02          1.2100    -2.7060     0.2070 ca         1 FDZ      -0.180000
      3 C03          0.4900    -1.5140     0.0910 ca         1 FDZ       0.015000
      4 C04          1.1750    -0.3020     0.0680 ca         1 FDZ      -0.140000
      5 C05          2.5580    -0.3060     0.1840 ca         1 FDZ       0.167100
      6 C06          3.2880    -1.4740     0.3170 ca         1 FDZ      -0.178000
      7 O07          3.1080     0.9640     0.1780 os         1 FDZ      -0.404100
      8 C08          4.3850     1.1960    -0.1410 c3         1 FDZ       0.524000
      9 F09          4.7480     0.6100    -1.2820 f          1 FDZ      -0.105333
     10 F10          4.5250     2.5050    -0.2800 f          1 FDZ      -0.105333
     11 F11          5.2390     0.7940     0.8030 f          1 FDZ      -0.105333
     12 N12         -0.8960    -1.6320    -0.0070 ns         1 FDZ      -0.144000
     13 C13         -1.8200    -0.6440    -0.0870 c          1 FDZ       0.659100
     14 O14         -1.5870     0.5510    -0.1260 o          1 FDZ      -0.587100
     15 N15         -3.1180    -1.1010    -0.1240 ns         1 FDZ      -0.384100
     16 C16         -4.1750    -0.2480    -0.2270 cc         1 FDZ      -0.097400
     17 C17         -5.5050    -0.5900    -0.2770 cd         1 FDZ       0.133900
     18 N18         -6.3300     0.4720    -0.3840 nd         1 FDZ      -0.275000
     19 N19         -5.7520     1.6010    -0.4140 nc         1 FDZ      -0.184100
     20 S20         -4.0740     1.4530    -0.3200 ss         1 FDZ       0.355100
     21 H1           3.1310    -3.6000     0.4280 ha         1 FDZ       0.123000
     22 H2           0.6900    -3.6550     0.2190 ha         1 FDZ       0.117000
     23 H3           0.6580     0.6380    -0.0340 ha         1 FDZ       0.172000
     24 H4           4.3610    -1.4940     0.4360 ha         1 FDZ       0.140000
     25 H5          -1.2380    -2.5820     0.0080 hn         1 FDZ       0.156000
     26 H6          -5.9010    -1.5930    -0.2490 h4         1 FDZ       0.049100
     27 H10         -3.3210    -2.0910    -0.1120 hn         1 FDZ       0.331500
@<TRIPOS>BOND
     1     1     2 ar  
     2     1     6 ar  
     3     1    21 1   
     4     2     3 ar  
     5     2    22 1   
     6     3     4 ar  
     7     3    12 1   
     8     4     5 ar  
     9     4    23 1   
    10     5     6 ar  
    11     5     7 1   
    12     6    24 1   
    13     7     8 1   
    14     8     9 1   
    15     8    10 1   
    16     8    11 1   
    17    12    13 1   
    18    12    25 1   
    19    13    14 2   
    20    13    15 1   
    21    15    16 1   
    22    15    27 1   
    23    16    17 2   
    24    16    20 1   
    25    17    18 1   
    26    17    26 1   
    27    18    19 2   
    28    19    20 1   
@<TRIPOS>SUBSTRUCTURE
     1 FDZ         1 TEMP              0 ****  ****    0 ROOT
