@<TRIPOS>MOLECULE
FE0
   22    22     1     0     0
SMALL
No Charge or Current Charge


@<TRIPOS>ATOM
      1 C1         -18.5490     7.6300    25.5780 c3         1 FE0       0.187600
      2 C2         -19.9030     8.3160    25.9110 c5         1 FE0      -0.055700
      3 C3         -21.1160     7.3470    26.0580 c5         1 FE0       0.177300
      4 C5         -21.2710     8.7620    27.9380 c5         1 FE0      -0.150400
      5 C4         -22.1470     8.2750    26.7640 c5         1 FE0       0.129300
      6 C6         -19.9810     9.2290    27.2000 c5         1 FE0       0.174300
      7 O7         -18.2590     6.5410    26.4680 oh         1 FE0      -0.642000
      8 O8         -21.6050     6.8620    24.8010 oh         1 FE0      -0.661000
      9 O9         -18.8440     9.1520    28.0570 oh         1 FE0      -0.632000
     10 O10        -23.3100     7.5730    27.2060 oh         1 FE0      -0.654000
     11 H1         -18.5960     7.2560    24.5470 h1         1 FE0       0.019700
     12 H2         -17.7480     8.3810    25.6150 h1         1 FE0       0.019700
     13 H3         -20.0850     8.9700    25.0490 hc         1 FE0       0.057700
     14 H4         -20.8630     6.5040    26.7180 h1         1 FE0       0.081700
     15 H5         -21.7410     9.5780    28.5000 hc         1 FE0       0.052700
     16 H6         -21.0650     7.9520    28.6480 hc         1 FE0       0.052700
     17 H7         -22.4340     9.1140    26.1130 h1         1 FE0       0.037700
     18 H8         -20.1100    10.2720    26.8760 h1         1 FE0       0.036700
     19 H9         -17.3510     6.2340    26.2540 ho         1 FE0       0.436000
     20 H10        -22.5220     6.5540    24.9790 ho         1 FE0       0.453000
     21 H11        -19.0360     9.7190    28.8350 ho         1 FE0       0.436000
     22 H12        -23.8530     8.2120    27.7180 ho         1 FE0       0.442000
@<TRIPOS>BOND
     1     1     2 1   
     2     1     7 1   
     3     1    11 1   
     4     1    12 1   
     5     2     3 1   
     6     2     6 1   
     7     2    13 1   
     8     3     5 1   
     9     3     8 1   
    10     3    14 1   
    11     4     5 1   
    12     4     6 1   
    13     4    15 1   
    14     4    16 1   
    15     5    10 1   
    16     5    17 1   
    17     6     9 1   
    18     6    18 1   
    19     7    19 1   
    20     8    20 1   
    21     9    21 1   
    22    10    22 1   
@<TRIPOS>SUBSTRUCTURE
     1 FE0         1 TEMP              0 ****  ****    0 ROOT
