@<TRIPOS>MOLECULE
FE0
   22    22     1     0     0
SMALL
abcg2


@<TRIPOS>ATOM
      1 C1         -18.5980     7.8260    25.4780 c3         1 FE0       0.187600
      2 C2         -19.9080     8.3780    26.0080 c5         1 FE0      -0.055700
      3 C3         -21.0480     7.3810    26.1620 c5         1 FE0       0.177300
      4 C5         -21.3920     9.2980    27.6410 c5         1 FE0      -0.150400
      5 C4         -22.1420     8.2030    26.8490 c5         1 FE0       0.129300
      6 C6         -19.8950     9.0900    27.3580 c5         1 FE0       0.174300
      7 O7         -18.2050     6.6640    26.1710 oh         1 FE0      -0.642000
      8 O8         -21.4160     6.8450    24.9140 oh         1 FE0      -0.661000
      9 O9         -19.2770     8.2590    28.3170 oh         1 FE0      -0.632000
     10 O10        -22.9560     7.3510    27.6250 oh         1 FE0      -0.654000
     11 H1         -18.7290     7.6160    24.4100 h1         1 FE0       0.019700
     12 H2         -17.8350     8.6140    25.5450 h1         1 FE0       0.019700
     13 H3         -20.2250     9.1380    25.2800 hc         1 FE0       0.057700
     14 H4         -20.7370     6.5840    26.8490 h1         1 FE0       0.081700
     15 H5         -21.6990    10.2880    27.2990 hc         1 FE0       0.052700
     16 H6         -21.6130     9.2510    28.7110 hc         1 FE0       0.052700
     17 H7         -22.7380     8.6830    26.0600 h1         1 FE0       0.037700
     18 H8         -19.3660    10.0500    27.2870 h1         1 FE0       0.036700
     19 H9         -17.5030     6.2470    25.6640 ho         1 FE0       0.436000
     20 H10        -22.0350     6.1250    25.0650 ho         1 FE0       0.453000
     21 H11        -19.3780     8.6790    29.1770 ho         1 FE0       0.436000
     22 H12        -23.6960     7.8640    27.9620 ho         1 FE0       0.442000
@<TRIPOS>BOND
     1     1     2 1   
     2     1     7 1   
     3     1    11 1   
     4     1    12 1   
     5     2     3 1   
     6     2     6 1   
     7     2    13 1   
     8     3     5 1   
     9     3     8 1   
    10     3    14 1   
    11     4     5 1   
    12     4     6 1   
    13     4    15 1   
    14     4    16 1   
    15     5    10 1   
    16     5    17 1   
    17     6     9 1   
    18     6    18 1   
    19     7    19 1   
    20     8    20 1   
    21     9    21 1   
    22    10    22 1   
@<TRIPOS>SUBSTRUCTURE
     1 FE0         1 TEMP              0 ****  ****    0 ROOT
