@<TRIPOS>MOLECULE
FE1
   59    62     1     0     0
SMALL
No Charge or Current Charge


@<TRIPOS>ATOM
      1 OAZ         -2.3540    -1.1290     2.3700 o          1 FE1      -0.597100
      2 CAU         -2.4310    -0.6490     1.2460 c          1 FE1       0.620700
      3 NAV         -3.4710    -1.0290     0.3660 n          1 FE1      -0.400800
      4 CAW         -4.0570    -0.0820    -0.6280 c6         1 FE1       0.090500
      5 CAX         -5.4270     0.4670    -0.1590 c6         1 FE1      -0.095900
      6 CBA         -4.3710    -2.1730     0.6820 c6         1 FE1       0.090500
      7 CBB         -5.7430    -1.6980     1.2160 c6         1 FE1      -0.095900
      8 CBC         -6.3880    -0.6830     0.2380 c6         1 FE1      -0.119700
      9 CBD         -7.7870    -0.2020     0.6730 c          1 FE1       0.592100
     10 OBG         -7.9670     0.4650     1.6830 o          1 FE1      -0.485000
     11 OBE         -8.7930    -0.5930    -0.1740 os         1 FE1      -0.445100
     12 CBF        -10.1400    -0.1950     0.1430 c3         1 FE1       0.151900
     13 CAT         -1.3480     0.2790     0.7420 ca         1 FE1      -0.203600
     14 CAS         -0.6900     1.1330     1.6490 ca         1 FE1      -0.031500
     15 CAR          0.3370     1.9850     1.2090 ca         1 FE1      -0.195500
     16 CAJ          0.7400     1.9890    -0.1370 ca         1 FE1       0.356000
     17 CAK          0.1010     1.1200    -1.0380 ca         1 FE1      -0.195500
     18 CAL         -0.9260     0.2650    -0.6060 ca         1 FE1      -0.031500
     19 N10          1.7850     2.8400    -0.5650 nh         1 FE1      -0.790400
     20 CAB          1.7660     3.4470    -1.9150 c3         1 FE1       0.204100
     21 C9           3.0810     2.8740     0.1720 c3         1 FE1       0.179500
     22 C6           3.8070     1.5270     0.2840 ca         1 FE1       0.207300
     23 N5           4.7240     1.2130    -0.6660 nb         1 FE1      -0.599000
     24 C4A          5.3550     0.0070    -0.5520 ca         1 FE1       0.031000
     25 C8A          5.0640    -0.8940     0.5240 ca         1 FE1       0.116000
     26 N8           4.1490    -0.5500     1.4590 nb         1 FE1      -0.107000
     27 C7           3.5310     0.6420     1.3430 ca         1 FE1       0.090900
     28 C4           6.3320    -0.4320    -1.4920 ca         1 FE1       0.465900
     29 N4           6.7100     0.3190    -2.5680 nv         1 FE1      -1.052900
     30 N3           6.9530    -1.6100    -1.4100 nb         1 FE1      -0.348000
     31 C2           6.6030    -2.3610    -0.3680 ca         1 FE1       0.444900
     32 N1           5.7110    -2.0790     0.5880 nb         1 FE1      -0.273000
     33 N2           7.2250    -3.5550    -0.2740 nv         1 FE1      -1.054900
     34 HAW1        -4.1800    -0.6050    -1.5880 h1         1 FE1       0.059450
     35 HAW2        -3.3930     0.7730    -0.8070 h1         1 FE1       0.059450
     36 HAX1        -5.8730     1.0810    -0.9540 hc         1 FE1       0.063950
     37 HAX2        -5.2730     1.1310     0.7020 hc         1 FE1       0.063950
     38 HBA1        -4.5240    -2.7610    -0.2350 h1         1 FE1       0.059450
     39 HBA2        -3.9010    -2.8450     1.4130 h1         1 FE1       0.059450
     40 HBB1        -5.6080    -1.2310     2.2010 hc         1 FE1       0.063950
     41 HBB2        -6.4060    -2.5620     1.3630 hc         1 FE1       0.063950
     42 HBC         -6.5710    -1.2450    -0.6890 hc         1 FE1       0.072700
     43 HBF1       -10.4470    -0.5940     1.1190 h1         1 FE1       0.048700
     44 HBF2       -10.2290     0.8990     0.1710 h1         1 FE1       0.048700
     45 HBF3       -10.8390    -0.5730    -0.6140 h1         1 FE1       0.048700
     46 HAS         -0.9820     1.1480     2.6980 ha         1 FE1       0.119500
     47 HAR          0.8160     2.6500     1.9210 ha         1 FE1       0.114500
     48 HAK          0.4150     1.0850    -2.0770 ha         1 FE1       0.114500
     49 HAL         -1.3790    -0.4210    -1.3200 ha         1 FE1       0.119500
     50 HAB1         0.7330     3.6120    -2.2510 h1         1 FE1       0.038700
     51 HAB2         2.2720     4.4210    -1.9080 h1         1 FE1       0.038700
     52 HAB3         2.2720     2.7930    -2.6380 h1         1 FE1       0.038700
     53 H91          3.7650     3.5850    -0.3120 h1         1 FE1       0.064700
     54 H92          2.9190     3.2650     1.1850 h1         1 FE1       0.064700
     55 H7           2.8020     0.8880     2.1120 h4         1 FE1       0.027100
     56 HN41         7.1480    -0.1590    -3.3500 hn         1 FE1       0.513500
     57 HN42         6.1210     1.1170    -2.7910 hn         1 FE1       0.513500
     58 HN21         6.8270    -4.2520     0.3510 hn         1 FE1       0.501000
     59 HN22         7.7220    -3.9040    -1.0890 hn         1 FE1       0.501000
@<TRIPOS>BOND
     1     1     2 2   
     2     2     3 1   
     3     2    13 1   
     4     3     4 1   
     5     3     6 1   
     6     4     5 1   
     7     4    34 1   
     8     4    35 1   
     9     5     8 1   
    10     5    36 1   
    11     5    37 1   
    12     6     7 1   
    13     6    38 1   
    14     6    39 1   
    15     7     8 1   
    16     7    40 1   
    17     7    41 1   
    18     8     9 1   
    19     8    42 1   
    20     9    10 2   
    21     9    11 1   
    22    11    12 1   
    23    12    43 1   
    24    12    44 1   
    25    12    45 1   
    26    13    14 ar  
    27    13    18 ar  
    28    14    15 ar  
    29    14    46 1   
    30    15    16 ar  
    31    15    47 1   
    32    16    17 ar  
    33    16    19 1   
    34    17    18 ar  
    35    17    48 1   
    36    18    49 1   
    37    19    20 1   
    38    19    21 1   
    39    20    50 1   
    40    20    51 1   
    41    20    52 1   
    42    21    22 1   
    43    21    53 1   
    44    21    54 1   
    45    22    23 ar  
    46    22    27 ar  
    47    23    24 ar  
    48    24    25 ar  
    49    24    28 ar  
    50    25    26 ar  
    51    25    32 ar  
    52    26    27 ar  
    53    27    55 1   
    54    28    29 1   
    55    28    30 ar  
    56    29    56 1   
    57    29    57 1   
    58    30    31 ar  
    59    31    32 ar  
    60    31    33 1   
    61    33    58 1   
    62    33    59 1   
@<TRIPOS>SUBSTRUCTURE
     1 FE1         1 TEMP              0 ****  ****    0 ROOT
