@<TRIPOS>MOLECULE
FE1
   59    62     1     0     0
SMALL
bcc


@<TRIPOS>ATOM
      1 OAZ         -2.0190    -1.9800     0.4590 o          1 FE1      -0.597100
      2 CAU         -2.2450    -0.9670    -0.1930 c          1 FE1       0.687700
      3 NAV         -3.3760    -0.8200    -0.9310 n          1 FE1      -0.467800
      4 CAW         -3.9970     0.4660    -1.2170 c6         1 FE1       0.090500
      5 CAX         -5.1490     0.7390    -0.2540 c6         1 FE1      -0.095900
      6 CBA         -4.3230    -1.9200    -1.0020 c6         1 FE1       0.090500
      7 CBB         -5.4710    -1.7400    -0.0180 c6         1 FE1      -0.095900
      8 CBC         -6.1670    -0.3960    -0.2740 c6         1 FE1      -0.119700
      9 CBD         -7.2850    -0.1610     0.7140 c          1 FE1       0.641100
     10 OBG         -7.3470     0.7640     1.4860 o          1 FE1      -0.534000
     11 OBE         -8.2090    -1.1090     0.6420 os         1 FE1      -0.421900
     12 CBF         -9.3100    -1.0320     1.5480 c3         1 FE1       0.128700
     13 CAT         -1.2320     0.1200    -0.2400 ca         1 FE1      -0.203600
     14 CAS         -0.5310     0.4490     0.9190 ca         1 FE1      -0.049500
     15 CAR          0.4850     1.3820     0.9100 ca         1 FE1      -0.213500
     16 CAJ          0.8790     2.0170    -0.2830 ca         1 FE1       0.217600
     17 CAK          0.1910     1.6560    -1.4560 ca         1 FE1      -0.213500
     18 CAL         -0.8430     0.7390    -1.4250 ca         1 FE1      -0.049500
     19 N10          1.8770     2.9610    -0.3070 nh         1 FE1      -0.652000
     20 CAB          2.3560     3.4410    -1.5850 c3         1 FE1       0.204100
     21 C9           2.7990     3.0470     0.7940 c3         1 FE1       0.179500
     22 C6           3.7520     1.8770     0.8780 ca         1 FE1       0.207300
     23 N5           3.6690     0.9230    -0.0130 nb         1 FE1      -0.599000
     24 C4A          4.5100    -0.1030     0.1010 ca         1 FE1       0.031000
     25 C8A          5.4740    -0.1950     1.1150 ca         1 FE1       0.642000
     26 N8           5.5610     0.8000     2.0240 nb         1 FE1      -0.633000
     27 C7           4.7200     1.7950     1.9040 ca         1 FE1       0.353900
     28 C4           4.4470    -1.2040    -0.8280 ca         1 FE1       0.728900
     29 N4           3.5370    -1.1770    -1.7950 nv         1 FE1      -0.942500
     30 N3           5.2750    -2.2170    -0.7110 nb         1 FE1      -0.874000
     31 C2           6.1700    -2.1820     0.3030 ca         1 FE1       0.970900
     32 N1           6.3130    -1.2350     1.2190 nb         1 FE1      -0.799000
     33 N2           7.0120    -3.2280     0.3550 nv         1 FE1      -0.944500
     34 HAW1        -4.3610     0.4560    -2.2480 h1         1 FE1       0.059450
     35 HAW2        -3.2690     1.2670    -1.1410 h1         1 FE1       0.059450
     36 HAX1        -5.6170     1.6850    -0.5330 hc         1 FE1       0.063950
     37 HAX2        -4.7460     0.8640     0.7540 hc         1 FE1       0.063950
     38 HBA1        -4.7210    -1.9490    -2.0210 h1         1 FE1       0.059450
     39 HBA2        -3.8090    -2.8610    -0.8270 h1         1 FE1       0.059450
     40 HBB1        -5.0830    -1.7720     1.0050 hc         1 FE1       0.063950
     41 HBB2        -6.1700    -2.5690    -0.1300 hc         1 FE1       0.063950
     42 HBC         -6.6240    -0.4430    -1.2710 hc         1 FE1       0.072700
     43 HBF1        -8.9760    -1.0670     2.5850 h1         1 FE1       0.048700
     44 HBF2        -9.8950    -0.1270     1.3900 h1         1 FE1       0.048700
     45 HBF3        -9.9290    -1.9010     1.3410 h1         1 FE1       0.048700
     46 HAS         -0.7890    -0.0270     1.8570 ha         1 FE1       0.137500
     47 HAR          0.9770     1.6010     1.8470 ha         1 FE1       0.132500
     48 HAK          0.4670     2.0790    -2.4110 ha         1 FE1       0.132500
     49 HAL         -1.3330     0.4860    -2.3580 ha         1 FE1       0.137500
     50 HAB1         1.5550     3.9180    -2.1510 h1         1 FE1       0.038700
     51 HAB2         3.1230     4.1930    -1.4170 h1         1 FE1       0.038700
     52 HAB3         2.7880     2.6470    -2.2020 h1         1 FE1       0.038700
     53 H91          3.3720     3.9710     0.6940 h1         1 FE1       0.064700
     54 H92          2.2660     3.1520     1.7420 h1         1 FE1       0.064700
     55 H7           4.7890     2.5900     2.6400 h4         1 FE1       0.027100
     56 HN41         3.4420    -1.9480    -2.4350 hn         1 FE1       0.458300
     57 HN42         2.8930    -0.4070    -1.8580 hn         1 FE1       0.458300
     58 HN21         7.5900    -3.3520     1.1680 hn         1 FE1       0.445800
     59 HN22         6.8240    -4.0370    -0.2100 hn         1 FE1       0.445800
@<TRIPOS>BOND
     1     1     2 2   
     2     2     3 1   
     3     2    13 1   
     4     3     4 1   
     5     3     6 1   
     6     4     5 1   
     7     4    34 1   
     8     4    35 1   
     9     5     8 1   
    10     5    36 1   
    11     5    37 1   
    12     6     7 1   
    13     6    38 1   
    14     6    39 1   
    15     7     8 1   
    16     7    40 1   
    17     7    41 1   
    18     8     9 1   
    19     8    42 1   
    20     9    10 2   
    21     9    11 1   
    22    11    12 1   
    23    12    43 1   
    24    12    44 1   
    25    12    45 1   
    26    13    14 ar  
    27    13    18 ar  
    28    14    15 ar  
    29    14    46 1   
    30    15    16 ar  
    31    15    47 1   
    32    16    17 ar  
    33    16    19 1   
    34    17    18 ar  
    35    17    48 1   
    36    18    49 1   
    37    19    20 1   
    38    19    21 1   
    39    20    50 1   
    40    20    51 1   
    41    20    52 1   
    42    21    22 1   
    43    21    53 1   
    44    21    54 1   
    45    22    23 ar  
    46    22    27 ar  
    47    23    24 ar  
    48    24    25 ar  
    49    24    28 ar  
    50    25    26 ar  
    51    25    32 ar  
    52    26    27 ar  
    53    27    55 1   
    54    28    29 1   
    55    28    30 ar  
    56    29    56 1   
    57    29    57 1   
    58    30    31 ar  
    59    31    32 ar  
    60    31    33 1   
    61    33    58 1   
    62    33    59 1   
@<TRIPOS>SUBSTRUCTURE
     1 FE1         1 TEMP              0 ****  ****    0 ROOT
