@<TRIPOS>MOLECULE
FE3
   22    22     1     0     0
SMALL
abcg2


@<TRIPOS>ATOM
      1 N           -4.5820     1.0860     0.5160 n8         1 FE3      -1.004200
      2 CA          -3.1590     0.8780     0.7310 c3         1 FE3       0.146800
      3 CB          -2.4360     0.7420    -0.6090 c3         1 FE3      -0.018100
      4 CG          -0.9600     0.5390    -0.4350 ca         1 FE3      -0.111300
      5 CD1         -0.3790    -0.7080    -0.2160 ca         1 FE3       0.108000
      6 CLD1        -1.3790    -2.1350    -0.1820 cl         1 FE3      -0.273000
      7 CD2         -0.0950     1.6320    -0.4480 ca         1 FE3      -0.132000
      8 CE1          0.9840    -0.8690    -0.0250 ca         1 FE3      -0.081000
      9 CE2          1.2700     1.4900    -0.2560 ca         1 FE3      -0.086000
     10 CZ           1.8290     0.2340    -0.0410 ca         1 FE3      -0.125600
     11 CF           3.3290     0.0590     0.1700 c          1 FE3       0.714600
     12 OF1          3.7300    -1.1030     0.3660 o          1 FE3      -0.715000
     13 OF2          4.0180     1.0950     0.1270 o          1 FE3      -0.715000
     14 HN          -4.9990     0.2280     0.1760 hn         1 FE3       0.383000
     15 H1A         -2.7580     1.7490     1.2560 h1         1 FE3       0.034200
     16 H2A         -2.9300     0.0060     1.3580 h1         1 FE3       0.034200
     17 H1B         -2.8740    -0.0840    -1.1760 hc         1 FE3       0.045200
     18 H2B         -2.6080     1.6500    -1.1910 hc         1 FE3       0.045200
     19 HD2         -0.5100     2.6190    -0.6190 ha         1 FE3       0.091000
     20 HE1          1.3960    -1.8550     0.1390 ha         1 FE3       0.144000
     21 HE2          1.9090     2.3630    -0.2750 ha         1 FE3       0.131000
     22 HNA         -5.0330     1.2750     1.4020 hn         1 FE3       0.383000
@<TRIPOS>BOND
     1     1     2 1   
     2     1    14 1   
     3     1    22 1   
     4     2     3 1   
     5     2    15 1   
     6     2    16 1   
     7     3     4 1   
     8     3    17 1   
     9     3    18 1   
    10     4     5 ar  
    11     4     7 ar  
    12     5     6 1   
    13     5     8 ar  
    14     7     9 ar  
    15     7    19 1   
    16     8    10 ar  
    17     8    20 1   
    18     9    10 ar  
    19     9    21 1   
    20    10    11 1   
    21    11    12 1   
    22    11    13 1   
@<TRIPOS>SUBSTRUCTURE
     1 FE3         1 TEMP              0 ****  ****    0 ROOT
