@<TRIPOS>MOLECULE
FE3
   22    22     1     0     0
SMALL
No Charge or Current Charge


@<TRIPOS>ATOM
      1 N           -4.6430     1.1040     0.5440 n8         1 FE3      -1.004200
      2 CA          -3.1940     0.8730     0.7350 c3         1 FE3       0.146800
      3 CB          -2.4360     0.7810    -0.6080 c3         1 FE3      -0.018100
      4 CG          -0.9350     0.5640    -0.4130 ca         1 FE3      -0.111300
      5 CD1         -0.3910    -0.7160    -0.1640 ca         1 FE3       0.108000
      6 ClD1        -1.4180    -2.1490    -0.0670 cl         1 FE3      -0.273000
      7 CD2         -0.0670     1.6710    -0.4740 ca         1 FE3      -0.132000
      8 CE1          0.9940    -0.8770     0.0140 ca         1 FE3      -0.081000
      9 CE2          1.3180     1.5080    -0.2950 ca         1 FE3      -0.086000
     10 CZ           1.8700     0.2310    -0.0490 ca         1 FE3      -0.125600
     11 CF           3.3670     0.0500     0.1450 c          1 FE3       0.714600
     12 OF1          3.7970    -1.0750     0.3560 o          1 FE3      -0.715000
     13 OF2          4.0890     1.0360     0.0830 o          1 FE3      -0.715000
     14 HN          -5.0490     0.2900     0.0670 hn         1 FE3       0.383000
     15 H1A         -2.7820     1.7010     1.3290 h1         1 FE3       0.034200
     16 H2A         -3.0570    -0.0580     1.3020 h1         1 FE3       0.034200
     17 H1B         -2.8650    -0.0240    -1.2170 hc         1 FE3       0.045200
     18 H2B         -2.6090     1.7050    -1.1740 hc         1 FE3       0.045200
     19 HD2         -0.4640     2.6660    -0.6600 ha         1 FE3       0.091000
     20 HE1          1.3840    -1.8740     0.2030 ha         1 FE3       0.144000
     21 HE2          1.9620     2.3840    -0.3490 ha         1 FE3       0.131000
     22 HNA         -5.1050     1.1010     1.4620 hn         1 FE3       0.383000
@<TRIPOS>BOND
     1     1     2 1   
     2     1    14 1   
     3     1    22 1   
     4     2     3 1   
     5     2    15 1   
     6     2    16 1   
     7     3     4 1   
     8     3    17 1   
     9     3    18 1   
    10     4     5 ar  
    11     4     7 ar  
    12     5     6 1   
    13     5     8 ar  
    14     7     9 ar  
    15     7    19 1   
    16     8    10 ar  
    17     8    20 1   
    18     9    10 ar  
    19     9    21 1   
    20    10    11 1   
    21    11    12 1   
    22    11    13 1   
@<TRIPOS>SUBSTRUCTURE
     1 FE3         1 TEMP              0 ****  ****    0 ROOT
