@<TRIPOS>MOLECULE
FE5
   38    41     1     0     0
SMALL
abcg2


@<TRIPOS>ATOM
      1 C4          -0.7880    -0.2470    -0.0690 cc         1 FE5       0.430500
      2 C5          -1.4990     0.9850    -0.1240 ca         1 FE5      -0.381900
      3 C7           5.0130    -0.0700     0.4820 cc         1 FE5       0.767500
      4 C8           2.9090     0.0260     0.3880 ca         1 FE5       0.094400
      5 N2          -1.6320    -1.2360     0.1130 nd         1 FE5      -0.519100
      6 C10          0.6530    -0.5060    -0.1790 ca         1 FE5      -0.100900
      7 C12         -1.2700     2.3590    -0.3700 ca         1 FE5       0.457900
      8 N3          -2.8630    -0.7140     0.1910 na         1 FE5      -0.017100
      9 C13          3.3160    -1.0570    -0.3880 ca         1 FE5       0.015100
     10 C15          1.5580     0.3100     0.5060 ca         1 FE5      -0.074000
     11 C1          -2.8370     0.6230     0.0590 ca         1 FE5       0.157500
     12 N6           4.0220     0.6320     0.9350 nd         1 FE5      -0.655100
     13 O9           4.6760    -1.1060    -0.3210 os         1 FE5      -0.308700
     14 N11         -3.8840     1.4560     0.0860 nb         1 FE5      -0.236000
     15 N14         -2.3080     3.1980    -0.3290 nb         1 FE5      -0.314000
     16 C16         -3.5250     2.7080    -0.0990 ca         1 FE5       0.196900
     17 C17         -4.0260    -1.5710     0.3770 c3         1 FE5       0.111300
     18 C18          1.1010    -1.5890    -0.9440 ca         1 FE5      -0.084000
     19 C19          2.4550    -1.8880    -1.0620 ca         1 FE5      -0.084000
     20 N21         -0.0680     2.8700    -0.6440 nv         1 FE5      -1.066900
     21 C22         -4.2150    -2.4810    -0.8270 c3         1 FE5      -0.103600
     22 C23         -3.9180    -2.3500     1.6790 c3         1 FE5      -0.103600
     23 H1           1.2170     1.1240     1.1340 ha         1 FE5       0.141000
     24 H2          -4.3230     3.4440    -0.0730 h5         1 FE5       0.045100
     25 H3          -4.8710    -0.8840     0.4410 h1         1 FE5       0.083700
     26 H4           0.3790    -2.2020    -1.4660 ha         1 FE5       0.132000
     27 H5           2.7990    -2.7240    -1.6550 ha         1 FE5       0.134000
     28 H6           6.5880     0.7810     1.3960 hn         1 FE5       0.504500
     29 H7           6.9750    -0.5990     0.4620 hn         1 FE5       0.504500
     30 H8           0.7260     2.2830    -0.8270 hn         1 FE5       0.504000
     31 H9           0.0060     3.8440    -0.8860 hn         1 FE5       0.504000
     32 H10         -4.2770    -1.9080    -1.7520 hc         1 FE5       0.048200
     33 H11         -3.3940    -3.1930    -0.9170 hc         1 FE5       0.048200
     34 H12         -5.1400    -3.0470    -0.7190 hc         1 FE5       0.048200
     35 H13         -3.7980    -1.6830     2.5330 hc         1 FE5       0.048200
     36 H14         -4.8250    -2.9340     1.8320 hc         1 FE5       0.048200
     37 H15         -3.0730    -3.0390     1.6550 hc         1 FE5       0.048200
     38 N20          6.3170     0.1310     0.6780 nv         1 FE5      -1.024200
@<TRIPOS>BOND
     1     1     2 1   
     2     1     5 2   
     3     1     6 1   
     4     2     7 ar  
     5     2    11 ar  
     6     3    12 2   
     7     3    13 1   
     8     3    38 1   
     9     4     9 ar  
    10     4    10 ar  
    11     4    12 1   
    12     5     8 1   
    13     6    10 ar  
    14     6    18 ar  
    15     7    15 ar  
    16     7    20 1   
    17     8    11 1   
    18     8    17 1   
    19     9    13 1   
    20     9    19 ar  
    21    10    23 1   
    22    11    14 ar  
    23    14    16 ar  
    24    15    16 ar  
    25    16    24 1   
    26    17    21 1   
    27    17    22 1   
    28    17    25 1   
    29    18    19 ar  
    30    18    26 1   
    31    19    27 1   
    32    20    30 1   
    33    20    31 1   
    34    21    32 1   
    35    21    33 1   
    36    21    34 1   
    37    22    35 1   
    38    22    36 1   
    39    22    37 1   
    40    28    38 1   
    41    29    38 1   
@<TRIPOS>SUBSTRUCTURE
     1 FE5         1 TEMP              0 ****  ****    0 ROOT
