@<TRIPOS>MOLECULE
FE5
   38    41     1     0     0
SMALL
No Charge or Current Charge


@<TRIPOS>ATOM
      1 C4          -0.7820    -0.3490    -0.1180 cc         1 FE5       0.430500
      2 C5          -1.5100     0.8980    -0.1210 ca         1 FE5      -0.381900
      3 C7           5.0080     0.0580     0.5030 cc         1 FE5       0.767500
      4 C8           2.9360     0.0550     0.3830 ca         1 FE5       0.094400
      5 N2          -1.5930    -1.3980     0.0630 nd         1 FE5      -0.519100
      6 C10          0.6680    -0.5020    -0.2690 ca         1 FE5      -0.100900
      7 C12         -1.1730     2.2190    -0.4030 ca         1 FE5       0.457900
      8 N3          -2.8380    -0.7990     0.2330 na         1 FE5      -0.017100
      9 C13          3.4200    -0.9020    -0.4640 ca         1 FE5       0.015100
     10 C15          1.5590     0.2750     0.5140 ca         1 FE5      -0.074000
     11 C1          -2.8170     0.5810     0.1230 ca         1 FE5       0.157500
     12 N6           3.9720     0.6930     1.0340 nd         1 FE5      -0.655100
     13 O9           4.7750    -0.9410    -0.4180 os         1 FE5      -0.308700
     14 N11         -3.7820     1.5200     0.1580 nb         1 FE5      -0.236000
     15 N14         -2.1040     3.1820    -0.3720 nb         1 FE5      -0.314000
     16 C16         -3.3670     2.7870    -0.0780 ca         1 FE5       0.196900
     17 C17         -4.0780    -1.5780     0.4640 c3         1 FE5       0.111300
     18 C18          1.1900    -1.5160    -1.1170 ca         1 FE5      -0.084000
     19 C19          2.5820    -1.7170    -1.2310 ca         1 FE5      -0.084000
     20 N21          0.0600     2.6220    -0.7710 nv         1 FE5      -1.066900
     21 C22         -4.4570    -2.4300    -0.7670 c3         1 FE5      -0.103600
     22 C23         -3.9950    -2.4300     1.7500 c3         1 FE5      -0.103600
     23 H1           1.1890     1.0210     1.2130 ha         1 FE5       0.141000
     24 H2          -4.1290     3.5640    -0.0510 h5         1 FE5       0.045100
     25 H3          -4.8930    -0.8580     0.6160 h1         1 FE5       0.083700
     26 H4           0.5120    -2.1430    -1.6940 ha         1 FE5       0.132000
     27 H5           2.9900    -2.4830    -1.8860 ha         1 FE5       0.134000
     28 H6           6.3550     0.8020     1.7360 hn         1 FE5       0.504500
     29 H7           6.9260    -0.4260     0.6830 hn         1 FE5       0.504500
     30 H8           0.7210     1.9210    -1.0860 hn         1 FE5       0.504000
     31 H9           0.1560     3.5500    -1.1750 hn         1 FE5       0.504000
     32 H10         -4.5540    -1.7960    -1.6570 hc         1 FE5       0.048200
     33 H11         -3.6930    -3.1900    -0.9680 hc         1 FE5       0.048200
     34 H12         -5.4150    -2.9380    -0.6050 hc         1 FE5       0.048200
     35 H13         -3.7620    -1.7980     2.6150 hc         1 FE5       0.048200
     36 H14         -4.9500    -2.9320     1.9430 hc         1 FE5       0.048200
     37 H15         -3.2150    -3.1970     1.6640 hc         1 FE5       0.048200
     38 N20          6.2630     0.3200     0.8510 nv         1 FE5      -1.024200
@<TRIPOS>BOND
     1     1     2 1   
     2     1     5 2   
     3     1     6 1   
     4     2     7 ar  
     5     2    11 ar  
     6     3    12 2   
     7     3    13 1   
     8     3    38 1   
     9     4     9 ar  
    10     4    10 ar  
    11     4    12 1   
    12     5     8 1   
    13     6    10 ar  
    14     6    18 ar  
    15     7    15 ar  
    16     7    20 1   
    17     8    11 1   
    18     8    17 1   
    19     9    13 1   
    20     9    19 ar  
    21    10    23 1   
    22    11    14 ar  
    23    14    16 ar  
    24    15    16 ar  
    25    16    24 1   
    26    17    21 1   
    27    17    22 1   
    28    17    25 1   
    29    18    19 ar  
    30    18    26 1   
    31    19    27 1   
    32    20    30 1   
    33    20    31 1   
    34    21    32 1   
    35    21    33 1   
    36    21    34 1   
    37    22    35 1   
    38    22    36 1   
    39    22    37 1   
    40    28    38 1   
    41    29    38 1   
@<TRIPOS>SUBSTRUCTURE
     1 FE5         1 TEMP              0 ****  ****    0 ROOT
