@<TRIPOS>MOLECULE
FE6
   28    30     1     0     0
SMALL
No Charge or Current Charge


@<TRIPOS>ATOM
      1 C10         75.6040     7.9640    22.5580 c3         1 FE6       0.151900
      2 C13         76.5550     4.2650    22.1000 ca         1 FE6      -0.137000
      3 C15         78.3210     5.6440    21.1510 ca         1 FE6      -0.110000
      4 C01         77.5540     9.3850    26.7930 ca         1 FE6       0.333000
      5 N02         78.7980     9.6550    26.3490 nb         1 FE6      -0.267000
      6 C03         79.0050     9.4530    25.0330 ca         1 FE6       0.435900
      7 N04         78.1250     9.0140    24.1130 nb         1 FE6      -0.285000
      8 C05         76.8920     8.7490    24.5840 ca         1 FE6       0.188500
      9 C06         76.5880     8.9260    25.8980 ca         1 FE6      -0.387900
     10 N07         75.7250     8.2930    23.9910 na         1 FE6      -0.034100
     11 N08         74.6700     8.1820    24.9070 nc         1 FE6      -0.511100
     12 C09         75.2060     8.5680    26.0740 cd         1 FE6       0.416800
     13 C11         76.3660     6.7010    22.1640 ca         1 FE6      -0.153300
     14 C12         75.8460     5.4230    22.4560 ca         1 FE6       0.202000
     15 C14         77.7930     4.3770    21.4480 ca         1 FE6       0.015100
     16 C16         77.6100     6.8040    21.5070 ca         1 FE6      -0.061000
     17 Br1         78.7620     2.8010    20.9630 br         1 FE6      -0.083100
     18 F1          74.6530     5.2960    23.0790 f          1 FE6      -0.163000
     19 Cl1         77.2050     9.6280    28.4970 cl         1 FE6      -0.148000
     20 H101        75.9710     8.8180    21.9760 h1         1 FE6       0.083700
     21 H102        74.5410     7.8400    22.3140 h1         1 FE6       0.083700
     22 H131        76.1430     3.2870    22.3300 ha         1 FE6       0.149000
     23 H151        79.2800     5.7290    20.6460 ha         1 FE6       0.135000
     24 H091        74.5920     8.5740    26.9660 h4         1 FE6       0.059800
     25 H161        78.0300     7.7810    21.2760 ha         1 FE6       0.132000
     26 H191        80.5120     9.3610    23.6650 hn         1 FE6       0.510000
     27 H192        81.0030     9.8190    25.2580 hn         1 FE6       0.510000
     28 N19         80.2510     9.7220    24.5790 nv         1 FE6      -1.065900
@<TRIPOS>BOND
     1     1    10 1   
     2     1    13 1   
     3     1    20 1   
     4     1    21 1   
     5     2    14 ar  
     6     2    15 ar  
     7     2    22 1   
     8     3    15 ar  
     9     3    16 ar  
    10     3    23 1   
    11     4     5 ar  
    12     4     9 ar  
    13     4    19 1   
    14     5     6 ar  
    15     6     7 ar  
    16     6    28 1   
    17     7     8 ar  
    18     8     9 ar  
    19     8    10 1   
    20     9    12 1   
    21    10    11 1   
    22    11    12 2   
    23    12    24 1   
    24    13    14 ar  
    25    13    16 ar  
    26    14    18 1   
    27    15    17 1   
    28    16    25 1   
    29    26    28 1   
    30    27    28 1   
@<TRIPOS>SUBSTRUCTURE
     1 FE6         1 TEMP              0 ****  ****    0 ROOT
