@<TRIPOS>MOLECULE
FE6
   28    30     1     0     0
SMALL
bcc


@<TRIPOS>ATOM
      1 C10         75.8230     8.0150    22.5330 c3         1 FE6       0.122600
      2 C13         76.1800     4.2690    21.9070 ca         1 FE6      -0.155000
      3 C15         78.3160     5.3300    21.5060 ca         1 FE6      -0.128000
      4 C01         77.6720     9.2750    26.7780 ca         1 FE6       0.661300
      5 N02         78.7680     9.7810    26.3080 nb         1 FE6      -0.793000
      6 C03         78.9430     9.7860    24.9560 ca         1 FE6       0.961900
      7 N04         78.0860     9.3140    24.0570 nb         1 FE6      -0.811000
      8 C05         76.9830     8.8130    24.5920 ca         1 FE6       0.516800
      9 C06         76.6810     8.7450    25.9610 ca         1 FE6      -0.518500
     10 N07         75.9310     8.2750    23.9500 na         1 FE6      -0.004800
     11 N08         74.9890     7.8410    24.8170 nc         1 FE6      -0.511100
     12 C09         75.4110     8.1190    26.0200 cd         1 FE6       0.416800
     13 C11         76.4080     6.6780    22.1660 ca         1 FE6      -0.153300
     14 C12         75.6580     5.5130    22.2060 ca         1 FE6       0.166900
     15 C14         77.5200     4.1960    21.5580 ca         1 FE6       0.015100
     16 C16         77.7470     6.5580    21.8110 ca         1 FE6      -0.079000
     17 BR1         78.2670     2.5160    21.1450 br         1 FE6      -0.083100
     18 F1          74.3650     5.5840    22.5450 f          1 FE6      -0.127900
     19 CL1         77.4590     9.2690    28.4880 cl         1 FE6      -0.148000
     20 H101        76.3570     8.8070    22.0110 h1         1 FE6       0.083700
     21 H102        74.7730     8.0970    22.2570 h1         1 FE6       0.083700
     22 H131        75.5460     3.3930    21.9500 ha         1 FE6       0.167000
     23 H151        79.3600     5.2720    21.2340 ha         1 FE6       0.153000
     24 H091        74.8150     7.8790    26.8860 h4         1 FE6       0.059800
     25 H161        78.3630     7.4470    21.7760 ha         1 FE6       0.150000
     26 H191        80.3160    10.3180    23.5480 hn         1 FE6       0.454800
     27 H192        80.7790    10.6390    25.1820 hn         1 FE6       0.454800
     28 N19         80.0860    10.3260    24.5260 nv         1 FE6      -0.955500
@<TRIPOS>BOND
     1     1    10 1   
     2     1    13 1   
     3     1    20 1   
     4     1    21 1   
     5     2    14 ar  
     6     2    15 ar  
     7     2    22 1   
     8     3    15 ar  
     9     3    16 ar  
    10     3    23 1   
    11     4     5 ar  
    12     4     9 ar  
    13     4    19 1   
    14     5     6 ar  
    15     6     7 ar  
    16     6    28 1   
    17     7     8 ar  
    18     8     9 ar  
    19     8    10 1   
    20     9    12 1   
    21    10    11 1   
    22    11    12 2   
    23    12    24 1   
    24    13    14 ar  
    25    13    16 ar  
    26    14    18 1   
    27    15    17 1   
    28    16    25 1   
    29    26    28 1   
    30    27    28 1   
@<TRIPOS>SUBSTRUCTURE
     1 FE6         1 TEMP              0 ****  ****    0 ROOT
