@<TRIPOS>MOLECULE
FE7
   69    73     1     0     0
SMALL
No Charge or Current Charge


@<TRIPOS>ATOM
      1 C4          -3.7510     9.7580    13.6840 ca         1 FE7      -0.008800
      2 C14         -1.0110    10.4110     8.8980 ca         1 FE7      -0.104000
      3 C5          -4.7070     9.4150    14.6210 ca         1 FE7       0.021600
      4 C6          -4.7170     8.1810    15.2750 ca         1 FE7      -0.108000
      5 C11         -2.5500    11.3300    11.0940 ca         1 FE7      -0.105800
      6 C7          -3.6900     7.2680    14.9530 ca         1 FE7      -0.131000
      7 C8          -5.1620    11.6170    14.0550 c          1 FE7       0.577200
      8 C9          -4.0140    11.1340    13.2350 cc         1 FE7      -0.314400
      9 C10         -3.3740    11.8210    12.2330 cf         1 FE7       0.335800
     10 C12         -2.7690    10.0480    10.5410 ca         1 FE7      -0.078500
     11 C13         -2.0010     9.5900     9.4570 ca         1 FE7      -0.113500
     12 N1          -5.5140    10.5300    14.8030 ns         1 FE7      -0.388100
     13 N2          -3.7430    13.1500    12.1360 nu         1 FE7      -0.820000
     14 C3          -2.6860     8.8830    13.4150 ca         1 FE7      -0.114000
     15 N3          -7.4670    16.8580     8.3420 n3         1 FE7      -0.722600
     16 O2          -5.6890    12.7180    14.0980 o          1 FE7      -0.603000
     17 C2          -2.6730     7.6090    14.0280 ca         1 FE7       0.290000
     18 N           -1.6700     6.6730    13.7830 nu         1 FE7      -0.950100
     19 S           -0.9140     6.3130    12.3490 s6         1 FE7       1.240100
     20 O           -1.9680     6.3280    11.3340 o          1 FE7      -0.545000
     21 O1          -0.1810     5.0780    12.6310 o          1 FE7      -0.545000
     22 C1           0.2620     7.6360    11.9990 c3         1 FE7      -0.326400
     23 C            1.1220     8.0580    13.2150 c3         1 FE7      -0.063100
     24 C16         -1.5680    12.1570    10.5010 ca         1 FE7      -0.078500
     25 C15         -0.7990    11.6980     9.4170 ca         1 FE7      -0.113500
     26 C17         -4.3110    13.9070    11.1070 ca         1 FE7       0.276000
     27 C22         -4.6530    13.3480     9.8600 ca         1 FE7      -0.129500
     28 C21         -5.2300    14.1440     8.8550 ca         1 FE7      -0.079500
     29 C20         -5.4770    15.5100     9.0860 ca         1 FE7      -0.092300
     30 C19         -5.1460    16.0680    10.3350 ca         1 FE7      -0.079500
     31 C18         -4.5700    15.2680    11.3380 ca         1 FE7      -0.129500
     32 C23         -6.1060    16.3800     8.0000 c3         1 FE7       0.214100
     33 C28         -7.9710    17.8560     7.3580 c6         1 FE7       0.165800
     34 C27         -9.3390    18.4420     7.7860 c6         1 FE7      -0.074400
     35 C26        -10.3790    17.3190     8.0070 c6         1 FE7      -0.075400
     36 C25         -9.8240    16.2700     8.9970 c6         1 FE7      -0.074400
     37 C24         -8.4410    15.7450     8.5370 c6         1 FE7       0.165800
     38 H2          -5.4770     7.9400    16.0150 ha         1 FE7       0.121000
     39 H3          -3.6720     6.2980    15.4430 ha         1 FE7       0.117000
     40 H5          -3.5560     9.4090    10.9350 ha         1 FE7       0.128500
     41 H6          -2.1810     8.5980     9.0470 ha         1 FE7       0.124000
     42 H7          -6.2590    10.5690    15.4880 hn         1 FE7       0.338500
     43 H8          -1.8770     9.1970    12.7760 ha         1 FE7       0.118000
     44 H10         -1.7910     5.7660    14.2100 hn         1 FE7       0.510000
     45 H11          0.9010     7.2500    11.1980 h1         1 FE7       0.099200
     46 H12         -0.3040     8.4820    11.6040 h1         1 FE7       0.099200
     47 H13          1.8440     8.8300    12.9220 hc         1 FE7       0.049033
     48 H14          0.4970     8.4690    14.0180 hc         1 FE7       0.049033
     49 H15          1.6820     7.2040    13.6160 hc         1 FE7       0.049033
     50 H16         -1.3850    13.1550    10.8930 ha         1 FE7       0.128500
     51 H17         -0.0390    12.3420     8.9800 ha         1 FE7       0.124000
     52 H18         -4.4890    12.2940     9.6630 ha         1 FE7       0.125000
     53 H19         -5.4890    13.6950     7.8980 ha         1 FE7       0.122500
     54 H20         -5.3410    17.1210    10.5270 ha         1 FE7       0.122500
     55 H21         -4.3180    15.7140    12.2960 ha         1 FE7       0.125000
     56 H22         -6.1320    15.8180     7.0560 h1         1 FE7       0.037700
     57 H23         -5.4420    17.2400     7.8370 h1         1 FE7       0.037700
     58 H24         -8.0750    17.3900     6.3660 h1         1 FE7       0.030950
     59 H25         -7.2530    18.6830     7.2530 h1         1 FE7       0.030950
     60 H26         -9.6990    19.1430     7.0210 hc         1 FE7       0.046950
     61 H27         -9.2160    19.0220     8.7110 hc         1 FE7       0.046950
     62 H28        -11.3180    17.7420     8.3890 hc         1 FE7       0.039200
     63 H29        -10.6140    16.8370     7.0480 hc         1 FE7       0.039200
     64 H30         -9.7310    16.7150     9.9970 hc         1 FE7       0.046950
     65 H31        -10.5280    15.4320     9.0910 hc         1 FE7       0.046950
     66 H32         -8.0740    15.0370     9.2940 h1         1 FE7       0.030950
     67 H33         -8.5650    15.1820     7.6010 h1         1 FE7       0.030950
     68 H4          -4.0840    13.4730    13.0440 hn         1 FE7       0.546000
     69 H1          -0.4170    10.0570     8.0590 ha         1 FE7       0.117000
@<TRIPOS>BOND
     1     1     3 ar  
     2     1     8 1   
     3     1    14 ar  
     4     2    11 ar  
     5     2    25 ar  
     6     2    69 1   
     7     3     4 ar  
     8     3    12 1   
     9     4     6 ar  
    10     4    38 1   
    11     5     9 1   
    12     5    10 ar  
    13     5    24 ar  
    14     6    17 ar  
    15     6    39 1   
    16     7     8 1   
    17     7    12 1   
    18     7    16 2   
    19     8     9 2   
    20     9    13 1   
    21    10    11 ar  
    22    10    40 1   
    23    11    41 1   
    24    12    42 1   
    25    13    26 1   
    26    13    68 1   
    27    14    17 ar  
    28    14    43 1   
    29    15    32 1   
    30    15    33 1   
    31    15    37 1   
    32    17    18 1   
    33    18    19 1   
    34    18    44 1   
    35    19    20 2   
    36    19    21 2   
    37    19    22 1   
    38    22    23 1   
    39    22    45 1   
    40    22    46 1   
    41    23    47 1   
    42    23    48 1   
    43    23    49 1   
    44    24    25 ar  
    45    24    50 1   
    46    25    51 1   
    47    26    27 ar  
    48    26    31 ar  
    49    27    28 ar  
    50    27    52 1   
    51    28    29 ar  
    52    28    53 1   
    53    29    30 ar  
    54    29    32 1   
    55    30    31 ar  
    56    30    54 1   
    57    31    55 1   
    58    32    56 1   
    59    32    57 1   
    60    33    34 1   
    61    33    58 1   
    62    33    59 1   
    63    34    35 1   
    64    34    60 1   
    65    34    61 1   
    66    35    36 1   
    67    35    62 1   
    68    35    63 1   
    69    36    37 1   
    70    36    64 1   
    71    36    65 1   
    72    37    66 1   
    73    37    67 1   
@<TRIPOS>SUBSTRUCTURE
     1 FE7         1 TEMP              0 ****  ****    0 ROOT
