@<TRIPOS>MOLECULE
FE7
   69    73     1     0     0
SMALL
abcg2


@<TRIPOS>ATOM
      1 C4          -3.7280     9.4020    14.0070 ca         1 FE7      -0.008800
      2 C14         -1.7180    10.4570     9.3340 ca         1 FE7      -0.104000
      3 C5          -4.2290     8.9660    15.2550 ca         1 FE7       0.021600
      4 C6          -3.6520     7.9230    15.9540 ca         1 FE7      -0.108000
      5 C11         -3.5420    11.0170    11.3630 ca         1 FE7      -0.105800
      6 C7          -2.5410     7.2910    15.3980 ca         1 FE7      -0.131000
      7 C8          -5.5360    10.7420    14.6580 c          1 FE7       0.577200
      8 C9          -4.5620    10.5180    13.5850 cc         1 FE7      -0.314400
      9 C10         -4.5030    11.3100    12.4540 cf         1 FE7       0.335800
     10 C12         -3.6850     9.8640    10.5910 ca         1 FE7      -0.078500
     11 C13         -2.7800     9.5910     9.5740 ca         1 FE7      -0.113500
     12 N1          -5.3120     9.7700    15.6030 ns         1 FE7      -0.388100
     13 N2          -5.2930    12.3960    12.3510 nu         1 FE7      -0.820000
     14 C3          -2.5950     8.7840    13.4850 ca         1 FE7      -0.114000
     15 N3          -7.1580    16.9400     8.1780 n3         1 FE7      -0.722600
     16 O2          -6.4080    11.6240    14.7440 o          1 FE7      -0.603000
     17 C2          -2.0090     7.7280    14.1830 ca         1 FE7       0.290000
     18 N           -0.8300     7.0970    13.7080 nu         1 FE7      -0.950100
     19 S           -0.4480     6.7530    12.1490 s6         1 FE7       1.240100
     20 O           -1.6530     6.5720    11.3720 o          1 FE7      -0.545000
     21 O1           0.5090     5.6700    12.2300 o          1 FE7      -0.545000
     22 C1           0.3930     8.1960    11.5180 c3         1 FE7      -0.326400
     23 C            1.6380     8.5580    12.3100 c3         1 FE7      -0.063100
     24 C16         -2.4800    11.8870    11.1170 ca         1 FE7      -0.078500
     25 C15         -1.5670    11.6020    10.1100 ca         1 FE7      -0.113500
     26 C17         -5.4550    13.2710    11.2550 ca         1 FE7       0.276000
     27 C22         -5.5390    12.8220     9.9390 ca         1 FE7      -0.129500
     28 C21         -5.7080    13.7380     8.9070 ca         1 FE7      -0.079500
     29 C20         -5.8130    15.1040     9.1570 ca         1 FE7      -0.092300
     30 C19         -5.7550    15.5380    10.4830 ca         1 FE7      -0.079500
     31 C18         -5.5770    14.6370    11.5210 ca         1 FE7      -0.129500
     32 C23         -5.9790    16.0910     8.0290 c3         1 FE7       0.214100
     33 C28         -7.1350    18.0420     7.2170 c6         1 FE7       0.165800
     34 C27         -8.3100    18.9900     7.4310 c6         1 FE7      -0.074400
     35 C26         -9.6380    18.2380     7.3620 c6         1 FE7      -0.075400
     36 C25         -9.6190    17.0470     8.3180 c6         1 FE7      -0.074400
     37 C24         -8.3970    16.1690     8.0710 c6         1 FE7       0.165800
     38 H2          -4.0490     7.6000    16.9070 ha         1 FE7       0.121000
     39 H3          -2.0740     6.4630    15.9160 ha         1 FE7       0.117000
     40 H5          -4.5050     9.1880    10.7910 ha         1 FE7       0.128500
     41 H6          -2.8980     8.6960     8.9770 ha         1 FE7       0.124000
     42 H7          -5.8310     9.7070    16.4650 hn         1 FE7       0.338500
     43 H8          -2.1720     9.1210    12.5550 ha         1 FE7       0.118000
     44 H10         -0.3180     6.5240    14.3640 hn         1 FE7       0.510000
     45 H11          0.6180     7.9350    10.4820 h1         1 FE7       0.099200
     46 H12         -0.3390     9.0010    11.5110 h1         1 FE7       0.099200
     47 H13          2.0990     9.4380    11.8600 hc         1 FE7       0.049033
     48 H14          1.3890     8.7930    13.3450 hc         1 FE7       0.049033
     49 H15          2.3640     7.7460    12.2970 hc         1 FE7       0.049033
     50 H16         -2.3710    12.7810    11.7180 ha         1 FE7       0.128500
     51 H17         -0.7380    12.2740     9.9300 ha         1 FE7       0.124000
     52 H18         -5.4890    11.7670     9.7180 ha         1 FE7       0.125000
     53 H19         -5.7780    13.3780     7.8880 ha         1 FE7       0.122500
     54 H20         -5.8480    16.5940    10.7020 ha         1 FE7       0.122500
     55 H21         -5.5160    14.9840    12.5450 ha         1 FE7       0.125000
     56 H22         -5.9990    15.5430     7.0720 h1         1 FE7       0.037700
     57 H23         -5.1070    16.7510     7.9980 h1         1 FE7       0.037700
     58 H24         -7.1640    17.6550     6.1810 h1         1 FE7       0.030950
     59 H25         -6.1890    18.5750     7.3350 h1         1 FE7       0.030950
     60 H26         -8.2740    19.7830     6.6790 hc         1 FE7       0.046950
     61 H27         -8.2070    19.4660     8.4110 hc         1 FE7       0.046950
     62 H28        -10.4710    18.9060     7.5960 hc         1 FE7       0.039200
     63 H29         -9.7950    17.8770     6.3400 hc         1 FE7       0.039200
     64 H30         -9.5940    17.4040     9.3530 hc         1 FE7       0.046950
     65 H31        -10.5240    16.4440     8.2040 hc         1 FE7       0.046950
     66 H32         -8.3620    15.3570     8.7980 h1         1 FE7       0.030950
     67 H33         -8.4730    15.7050     7.0700 h1         1 FE7       0.030950
     68 H4          -5.8510    12.5850    13.1850 hn         1 FE7       0.546000
     69 H1          -1.0070    10.2370     8.5480 ha         1 FE7       0.117000
@<TRIPOS>BOND
     1     1     3 ar  
     2     1     8 1   
     3     1    14 ar  
     4     2    11 ar  
     5     2    25 ar  
     6     2    69 1   
     7     3     4 ar  
     8     3    12 1   
     9     4     6 ar  
    10     4    38 1   
    11     5     9 1   
    12     5    10 ar  
    13     5    24 ar  
    14     6    17 ar  
    15     6    39 1   
    16     7     8 1   
    17     7    12 1   
    18     7    16 2   
    19     8     9 2   
    20     9    13 1   
    21    10    11 ar  
    22    10    40 1   
    23    11    41 1   
    24    12    42 1   
    25    13    26 1   
    26    13    68 1   
    27    14    17 ar  
    28    14    43 1   
    29    15    32 1   
    30    15    33 1   
    31    15    37 1   
    32    17    18 1   
    33    18    19 1   
    34    18    44 1   
    35    19    20 2   
    36    19    21 2   
    37    19    22 1   
    38    22    23 1   
    39    22    45 1   
    40    22    46 1   
    41    23    47 1   
    42    23    48 1   
    43    23    49 1   
    44    24    25 ar  
    45    24    50 1   
    46    25    51 1   
    47    26    27 ar  
    48    26    31 ar  
    49    27    28 ar  
    50    27    52 1   
    51    28    29 ar  
    52    28    53 1   
    53    29    30 ar  
    54    29    32 1   
    55    30    31 ar  
    56    30    54 1   
    57    31    55 1   
    58    32    56 1   
    59    32    57 1   
    60    33    34 1   
    61    33    58 1   
    62    33    59 1   
    63    34    35 1   
    64    34    60 1   
    65    34    61 1   
    66    35    36 1   
    67    35    62 1   
    68    35    63 1   
    69    36    37 1   
    70    36    64 1   
    71    36    65 1   
    72    37    66 1   
    73    37    67 1   
@<TRIPOS>SUBSTRUCTURE
     1 FE7         1 TEMP              0 ****  ****    0 ROOT
