@<TRIPOS>MOLECULE
FEB
   90    89     1     0     0
SMALL
abcg2


@<TRIPOS>ATOM
      1 N1          -6.2800    -0.0300    -0.2410 ns         1 FEB      -0.483900
      2 C2          -7.5790     0.5820    -0.0300 c3         1 FEB       0.114700
      3 C3          -8.4500    -0.2790     0.8750 c3         1 FEB       0.137600
      4 O4          -8.6560    -1.5310     0.2630 oh         1 FEB      -0.664000
      5 C5          -8.2440     0.8750    -1.3720 c3         1 FEB      -0.085400
      6 C6          -7.4400     1.7660    -2.3210 c3         1 FEB      -0.058700
      7 C7          -8.2350     1.9940    -3.6030 c3         1 FEB      -0.089600
      8 C8          -7.0580     3.0980    -1.6830 c3         1 FEB      -0.089600
      9 N9          -2.8970    -0.2720     0.9440 ns         1 FEB      -0.503900
     10 C10         -4.0620    -0.8170     0.2990 c3         1 FEB       0.026700
     11 C11         -5.2550     0.0860     0.6130 c          1 FEB       0.592100
     12 O12         -5.2590     0.8170     1.5920 o          1 FEB      -0.632100
     13 C13         -4.3780    -2.2460     0.7650 c3         1 FEB      -0.078400
     14 C14         -3.2340    -3.2070     0.4860 c3         1 FEB      -0.161400
     15 C15         -3.5750    -4.6420     0.8350 c          1 FEB       0.604100
     16 O16         -4.7180    -5.0740     0.7880 o          1 FEB      -0.615100
     17 N17         -2.5240    -5.4040     1.1720 nt         1 FEB      -0.609000
     18 N18          0.5890     0.7150     0.5410 ns         1 FEB      -0.478900
     19 C19         -0.6370     0.5190     1.2610 c3         1 FEB       0.047700
     20 O21         -1.4370    -0.5330    -0.7610 o          1 FEB      -0.585100
     21 C22         -1.1310     1.8170     1.9030 c3         1 FEB      -0.177400
     22 C23         -1.7150     2.7910     0.9020 c          1 FEB       0.603100
     23 O24         -1.3620     2.7870    -0.2720 o          1 FEB      -0.615100
     24 N25         -2.6030     3.6570     1.3980 nt         1 FEB      -0.595000
     25 C26          5.2260     0.1990    -0.5450 c3         1 FEB      -0.108400
     26 C27          4.0120    -0.0200     0.3480 c3         1 FEB       0.173300
     27 C28          7.7560     0.1390    -0.7430 c3         1 FEB      -0.075400
     28 C30         15.3520    -0.1140    -1.3690 c3         1 FEB      -0.088100
     29 C31         14.1620    -0.1180    -0.4200 c3         1 FEB      -0.075400
     30 C32         12.8260    -0.0330    -1.1500 c3         1 FEB      -0.075400
     31 C33         11.6240    -0.0420    -0.2140 c3         1 FEB      -0.074400
     32 C34         10.2910     0.0550    -0.9460 c3         1 FEB      -0.074400
     33 C35          9.0880     0.0270    -0.0120 c3         1 FEB      -0.074400
     34 C36          2.7060     0.0750    -0.4400 c3         1 FEB      -0.191400
     35 O37          3.9880     0.8570     1.4570 oh         1 FEB      -0.651000
     36 O49          1.4580    -1.3000     1.0640 o          1 FEB      -0.613100
     37 HN1         -6.2040    -0.7020    -0.9890 hn         1 FEB       0.326500
     38 H2          -7.4180     1.5240     0.4970 h1         1 FEB       0.077700
     39 H3          -7.9520    -0.3840     1.8470 h1         1 FEB       0.031200
     40 H3A         -9.3940     0.2530     1.0540 h1         1 FEB       0.031200
     41 HO4         -9.1230    -2.0950     0.8850 ho         1 FEB       0.449000
     42 H5          -8.4810    -0.0660    -1.8790 hc         1 FEB       0.053700
     43 H5A         -9.2060     1.3560    -1.1620 hc         1 FEB       0.053700
     44 H6          -6.5160     1.2410    -2.5890 hc         1 FEB       0.048700
     45 H7          -9.1610     2.5370    -3.3970 hc         1 FEB       0.033700
     46 H7A         -7.6630     2.5790    -4.3260 hc         1 FEB       0.033700
     47 H7B         -8.5060     1.0500    -4.0790 hc         1 FEB       0.033700
     48 H8          -7.9450     3.6340    -1.3350 hc         1 FEB       0.033700
     49 H8A         -6.3890     2.9720    -0.8310 hc         1 FEB       0.033700
     50 H8B         -6.5450     3.7390    -2.4030 hc         1 FEB       0.033700
     51 HN9         -3.0360     0.0640     1.8840 hn         1 FEB       0.326500
     52 H10         -3.8830    -0.8250    -0.7790 h1         1 FEB       0.093700
     53 H13         -4.6040    -2.2320     1.8350 hc         1 FEB       0.064700
     54 H13A        -5.2800    -2.5910     0.2570 hc         1 FEB       0.064700
     55 H14         -2.9780    -3.1810    -0.5780 hc         1 FEB       0.068700
     56 H14A        -2.3350    -2.8970     1.0230 hc         1 FEB       0.068700
     57 HN17        -1.5880    -5.0380     1.1960 hn         1 FEB       0.315500
     58 HN1A        -2.6420    -6.3890     1.3470 hn         1 FEB       0.315500
     59 HN18         0.6240     1.4960    -0.0950 hn         1 FEB       0.337500
     60 H19         -0.4290    -0.1830     2.0720 h1         1 FEB       0.094700
     61 H22         -1.8470     1.6030     2.6990 hc         1 FEB       0.073700
     62 H22A        -0.2850     2.2990     2.4010 hc         1 FEB       0.073700
     63 HN25        -2.9280     3.6010     2.3470 hn         1 FEB       0.318500
     64 HN2A        -3.0310     4.3470     0.8020 hn         1 FEB       0.318500
     65 H26          5.1880    -0.5330    -1.3590 hc         1 FEB       0.042200
     66 H26A         5.1650     1.1850    -1.0230 hc         1 FEB       0.042200
     67 H27          4.0780    -1.0240     0.7770 h1         1 FEB       0.092700
     68 H28          7.6830    -0.6600    -1.4900 hc         1 FEB       0.036200
     69 H28A         7.7280     1.0800    -1.3030 hc         1 FEB       0.036200
     70 H29          6.6390     0.8460     0.9510 hc         1 FEB       0.046700
     71 H29A         6.5750    -0.8900     0.7280 hc         1 FEB       0.046700
     72 H30         15.3700     0.7950    -1.9730 hc         1 FEB       0.031367
     73 H30A        16.2990    -0.1690    -0.8290 hc         1 FEB       0.031367
     74 H30B        15.3120    -0.9630    -2.0540 hc         1 FEB       0.031367
     75 H31         14.1820    -1.0250     0.1930 hc         1 FEB       0.036700
     76 H31A        14.2460     0.7200     0.2790 hc         1 FEB       0.036700
     77 H32         12.8050     0.8770    -1.7600 hc         1 FEB       0.036700
     78 H32A        12.7440    -0.8690    -1.8530 hc         1 FEB       0.036700
     79 H33         11.6420    -0.9560     0.3900 hc         1 FEB       0.037200
     80 H33A        11.7100     0.7890     0.4950 hc         1 FEB       0.037200
     81 H34         10.2700     0.9770    -1.5390 hc         1 FEB       0.036700
     82 H34A        10.2100    -0.7680    -1.6640 hc         1 FEB       0.036700
     83 H35          9.1730     0.8420     0.7150 hc         1 FEB       0.038700
     84 H35A         9.1050    -0.9010     0.5710 hc         1 FEB       0.038700
     85 H36          2.6140     1.0660    -0.8970 hc         1 FEB       0.067200
     86 H36A         2.7180    -0.6500    -1.2570 hc         1 FEB       0.067200
     87 HO37         3.9730     1.7620     1.1260 ho         1 FEB       0.434000
     88 C20         -1.6930    -0.1410     0.3620 c          1 FEB       0.592100
     89 C38          1.5270    -0.2440     0.4500 c          1 FEB       0.621100
     90 C29          6.5540     0.0650     0.1910 c3         1 FEB      -0.071400
@<TRIPOS>BOND
     1     1     2 1   
     2     1    11 1   
     3     1    37 1   
     4     2     3 1   
     5     2     5 1   
     6     2    38 1   
     7     3     4 1   
     8     3    39 1   
     9     3    40 1   
    10     4    41 1   
    11     5     6 1   
    12     5    42 1   
    13     5    43 1   
    14     6     7 1   
    15     6     8 1   
    16     6    44 1   
    17     7    45 1   
    18     7    46 1   
    19     7    47 1   
    20     8    48 1   
    21     8    49 1   
    22     8    50 1   
    23     9    10 1   
    24     9    51 1   
    25     9    88 1   
    26    10    11 1   
    27    10    13 1   
    28    10    52 1   
    29    11    12 2   
    30    13    14 1   
    31    13    53 1   
    32    13    54 1   
    33    14    15 1   
    34    14    55 1   
    35    14    56 1   
    36    15    16 2   
    37    15    17 1   
    38    17    57 1   
    39    17    58 1   
    40    18    19 1   
    41    18    59 1   
    42    18    89 1   
    43    19    21 1   
    44    19    60 1   
    45    19    88 1   
    46    20    88 2   
    47    21    22 1   
    48    21    61 1   
    49    21    62 1   
    50    22    23 2   
    51    22    24 1   
    52    24    63 1   
    53    24    64 1   
    54    25    26 1   
    55    25    65 1   
    56    25    66 1   
    57    25    90 1   
    58    26    34 1   
    59    26    35 1   
    60    26    67 1   
    61    27    33 1   
    62    27    68 1   
    63    27    69 1   
    64    27    90 1   
    65    28    29 1   
    66    28    72 1   
    67    28    73 1   
    68    28    74 1   
    69    29    30 1   
    70    29    75 1   
    71    29    76 1   
    72    30    31 1   
    73    30    77 1   
    74    30    78 1   
    75    31    32 1   
    76    31    79 1   
    77    31    80 1   
    78    32    33 1   
    79    32    81 1   
    80    32    82 1   
    81    33    83 1   
    82    33    84 1   
    83    34    85 1   
    84    34    86 1   
    85    34    89 1   
    86    35    87 1   
    87    36    89 2   
    88    70    90 1   
    89    71    90 1   
@<TRIPOS>SUBSTRUCTURE
     1 FEB         1 TEMP              0 ****  ****    0 ROOT
