@<TRIPOS>MOLECULE
FEB
   90    89     1     0     0
SMALL
No Charge or Current Charge


@<TRIPOS>ATOM
      1 N1          -6.4270     0.1120    -0.1790 ns         1 FEB      -0.483900
      2 C2          -7.3650     1.2380    -0.0780 c3         1 FEB       0.114700
      3 C3          -8.8000     0.7190     0.2150 c3         1 FEB       0.137600
      4 O4          -9.2250    -0.2330    -0.7770 oh         1 FEB      -0.664000
      5 C5          -7.3010     2.1290    -1.3500 c3         1 FEB      -0.085400
      6 C6          -5.9220     2.7860    -1.6520 c3         1 FEB      -0.058700
      7 C7          -5.9290     3.4660    -3.0400 c3         1 FEB      -0.089600
      8 C8          -5.4860     3.7900    -0.5580 c3         1 FEB      -0.089600
      9 N9          -3.1820    -1.2820     1.0090 ns         1 FEB      -0.503900
     10 C10         -4.4590    -1.3310     0.2620 c3         1 FEB       0.026700
     11 C11         -5.2900    -0.0530     0.5790 c          1 FEB       0.592100
     12 O12         -4.9500     0.7620     1.4290 o          1 FEB      -0.632100
     13 C13         -5.2330    -2.6410     0.5670 c3         1 FEB      -0.078400
     14 C14         -4.4570    -3.9300     0.1890 c3         1 FEB      -0.161400
     15 C15         -5.3030    -5.1830     0.4290 c          1 FEB       0.604100
     16 O16         -6.1260    -5.5980    -0.3700 o          1 FEB      -0.615100
     17 N17         -5.0980    -5.8280     1.5960 nt         1 FEB      -0.609000
     18 N18          0.5490    -1.1670     0.7370 ns         1 FEB      -0.478900
     19 C19         -0.7540    -1.0280     1.4230 c3         1 FEB       0.047700
     20 O21         -1.7610    -1.5510    -0.7500 o          1 FEB      -0.585100
     21 C22         -0.9050     0.3550     2.1260 c3         1 FEB      -0.177400
     22 C23         -0.9950     1.5140     1.1280 c          1 FEB       0.603100
     23 O24         -0.0220     2.0330     0.6110 o          1 FEB      -0.615100
     24 N25         -2.2350     1.9650     0.8410 nt         1 FEB      -0.595000
     25 C26          5.3180    -0.9070    -0.1160 c3         1 FEB      -0.108400
     26 C27          4.0090    -0.6020     0.6540 c3         1 FEB       0.173300
     27 C28          7.7750    -0.2750    -0.5730 c3         1 FEB      -0.075400
     28 C30         15.1440     1.5960    -1.9450 c3         1 FEB      -0.088100
     29 C31         13.8440     1.9550    -1.2000 c3         1 FEB      -0.075400
     30 C32         12.6900     0.9710    -1.4870 c3         1 FEB      -0.075400
     31 C33         11.3870     1.3330    -0.7410 c3         1 FEB      -0.074400
     32 C34         10.2320     0.3480    -1.0290 c3         1 FEB      -0.074400
     33 C35          8.9280     0.7110    -0.2840 c3         1 FEB      -0.074400
     34 C36          2.9320    -1.6790     0.4210 c3         1 FEB      -0.191400
     35 O37          3.4940     0.6630     0.2320 oh         1 FEB      -0.651000
     36 O49          1.8110    -1.6880     2.5590 o          1 FEB      -0.613100
     37 HN1         -6.6510    -0.6190    -0.8430 hn         1 FEB       0.326500
     38 H2          -7.0830     1.8590     0.7810 h1         1 FEB       0.077700
     39 H3          -8.8050     0.2510     1.2090 h1         1 FEB       0.031200
     40 H3A         -9.4910     1.5720     0.2510 h1         1 FEB       0.031200
     41 HO4        -10.1350    -0.5170    -0.5340 ho         1 FEB       0.449000
     42 H5          -7.5950     1.5180    -2.2130 hc         1 FEB       0.053700
     43 H5A         -8.0560     2.9200    -1.2650 hc         1 FEB       0.053700
     44 H6          -5.1650     1.9920    -1.6920 hc         1 FEB       0.048700
     45 H7          -6.6650     4.2780    -3.0740 hc         1 FEB       0.033700
     46 H7A         -4.9420     3.8870    -3.2710 hc         1 FEB       0.033700
     47 H7B         -6.1770     2.7430    -3.8260 hc         1 FEB       0.033700
     48 H8          -6.2240     4.5950    -0.4500 hc         1 FEB       0.033700
     49 H8A         -5.3700     3.2990     0.4140 hc         1 FEB       0.033700
     50 H8B         -4.5220     4.2450    -0.8140 hc         1 FEB       0.033700
     51 HN9         -3.2270    -1.0870     2.0030 hn         1 FEB       0.326500
     52 H10         -4.2510    -1.2960    -0.8160 h1         1 FEB       0.093700
     53 H13         -5.4880    -2.6690     1.6350 hc         1 FEB       0.064700
     54 H13A        -6.1840    -2.6330     0.0200 hc         1 FEB       0.064700
     55 H14         -4.1860    -3.8820    -0.8720 hc         1 FEB       0.068700
     56 H14A        -3.5550    -3.9780     0.8110 hc         1 FEB       0.068700
     57 HN17        -4.4190    -5.4780     2.2550 hn         1 FEB       0.315500
     58 HN1A        -5.6320    -6.6590     1.8010 hn         1 FEB       0.315500
     59 HN18         0.5760    -1.0550    -0.2710 hn         1 FEB       0.337500
     60 H19         -0.8100    -1.8060     2.1970 h1         1 FEB       0.094700
     61 H22         -1.8150     0.3310     2.7360 hc         1 FEB       0.073700
     62 H22A        -0.0360     0.5140     2.7750 hc         1 FEB       0.073700
     63 HN25        -3.0530     1.5380     1.2600 hn         1 FEB       0.318500
     64 HN2A        -2.3380     2.7330     0.1960 hn         1 FEB       0.318500
     65 H26          5.6550    -1.9160     0.1540 hc         1 FEB       0.042200
     66 H26A         5.1140    -0.9260    -1.1950 hc         1 FEB       0.042200
     67 H27          4.2440    -0.5770     1.7290 h1         1 FEB       0.092700
     68 H28          8.0860    -1.2870    -0.2840 hc         1 FEB       0.036200
     69 H28A         7.5800    -0.2950    -1.6520 hc         1 FEB       0.036200
     70 H29          6.1640     1.0990    -0.1180 hc         1 FEB       0.046700
     71 H29A         6.6650     0.1070     1.2510 hc         1 FEB       0.046700
     72 H30         14.9840     1.6030    -3.0300 hc         1 FEB       0.031367
     73 H30A        15.9320     2.3200    -1.7100 hc         1 FEB       0.031367
     74 H30B        15.4960     0.5990    -1.6530 hc         1 FEB       0.031367
     75 H31         14.0460     1.9750    -0.1220 hc         1 FEB       0.036700
     76 H31A        13.5380     2.9690    -1.4870 hc         1 FEB       0.036700
     77 H32         12.4930     0.9520    -2.5670 hc         1 FEB       0.036700
     78 H32A        13.0000    -0.0420    -1.2000 hc         1 FEB       0.036700
     79 H33         11.5830     1.3510     0.3390 hc         1 FEB       0.037200
     80 H33A        11.0770     2.3450    -1.0280 hc         1 FEB       0.037200
     81 H34         10.0370     0.3280    -2.1080 hc         1 FEB       0.036700
     82 H34A        10.5420    -0.6640    -0.7410 hc         1 FEB       0.036700
     83 H35          8.6180     1.7230    -0.5730 hc         1 FEB       0.038700
     84 H35A         9.1240     0.7310     0.7950 hc         1 FEB       0.038700
     85 H36          2.6110    -1.6550    -0.6270 hc         1 FEB       0.067200
     86 H36A         3.3730    -2.6570     0.6410 hc         1 FEB       0.067200
     87 HO37         3.5950     0.7040    -0.7430 ho         1 FEB       0.434000
     88 C20         -1.9260    -1.3280     0.4420 c          1 FEB       0.592100
     89 C38          1.7360    -1.4930     1.3540 c          1 FEB       0.621100
     90 C29          6.4700     0.0860     0.1710 c3         1 FEB      -0.071400
@<TRIPOS>BOND
     1     1     2 1   
     2     1    11 1   
     3     1    37 1   
     4     2     3 1   
     5     2     5 1   
     6     2    38 1   
     7     3     4 1   
     8     3    39 1   
     9     3    40 1   
    10     4    41 1   
    11     5     6 1   
    12     5    42 1   
    13     5    43 1   
    14     6     7 1   
    15     6     8 1   
    16     6    44 1   
    17     7    45 1   
    18     7    46 1   
    19     7    47 1   
    20     8    48 1   
    21     8    49 1   
    22     8    50 1   
    23     9    10 1   
    24     9    51 1   
    25     9    88 1   
    26    10    11 1   
    27    10    13 1   
    28    10    52 1   
    29    11    12 2   
    30    13    14 1   
    31    13    53 1   
    32    13    54 1   
    33    14    15 1   
    34    14    55 1   
    35    14    56 1   
    36    15    16 2   
    37    15    17 1   
    38    17    57 1   
    39    17    58 1   
    40    18    19 1   
    41    18    59 1   
    42    18    89 1   
    43    19    21 1   
    44    19    60 1   
    45    19    88 1   
    46    20    88 2   
    47    21    22 1   
    48    21    61 1   
    49    21    62 1   
    50    22    23 2   
    51    22    24 1   
    52    24    63 1   
    53    24    64 1   
    54    25    26 1   
    55    25    65 1   
    56    25    66 1   
    57    25    90 1   
    58    26    34 1   
    59    26    35 1   
    60    26    67 1   
    61    27    33 1   
    62    27    68 1   
    63    27    69 1   
    64    27    90 1   
    65    28    29 1   
    66    28    72 1   
    67    28    73 1   
    68    28    74 1   
    69    29    30 1   
    70    29    75 1   
    71    29    76 1   
    72    30    31 1   
    73    30    77 1   
    74    30    78 1   
    75    31    32 1   
    76    31    79 1   
    77    31    80 1   
    78    32    33 1   
    79    32    81 1   
    80    32    82 1   
    81    33    83 1   
    82    33    84 1   
    83    34    85 1   
    84    34    86 1   
    85    34    89 1   
    86    35    87 1   
    87    36    89 2   
    88    70    90 1   
    89    71    90 1   
@<TRIPOS>SUBSTRUCTURE
     1 FEB         1 TEMP              0 ****  ****    0 ROOT
