@<TRIPOS>MOLECULE
FED
   87    92     1     0     0
SMALL
No Charge or Current Charge


@<TRIPOS>ATOM
      1 O2A          3.7870    -1.1960    -4.4490 o          1 FED      -0.848500
      2 PA           3.6090    -1.5710    -3.0140 p5         1 FED       1.456800
      3 O1A          4.5130    -2.6810    -2.5970 o          1 FED      -0.848500
      4 O5B          3.8410    -0.2640    -2.0970 os         1 FED      -0.558400
      5 C5B          3.9580    -0.3630    -0.6670 c3         1 FED       0.231600
      6 C4B          5.3870    -0.8120    -0.2360 c5         1 FED       0.153300
      7 C3B          5.7100    -0.5530     1.2680 c5         1 FED       0.082300
      8 O3B          5.1450    -1.5330     2.1550 oh         1 FED      -0.696000
      9 C2B          7.2590    -0.6460     1.2250 c5         1 FED       0.091300
     10 O2B          7.6750    -2.0200     1.1430 oh         1 FED      -0.708000
     11 C1B          7.5330     0.1820    -0.0820 c5         1 FED       0.315300
     12 N9A          7.6350     1.6300     0.1110 na         1 FED      -0.298300
     13 C4A          8.5840     2.3250     0.8150 ca         1 FED       0.101500
     14 N3A          9.6570     1.8940     1.5100 nb         1 FED      -0.209000
     15 C2A         10.4080     2.8550     2.0990 ca         1 FED       0.155900
     16 N1A         10.1900     4.1910     2.0580 nb         1 FED      -0.324000
     17 C6A          9.1150     4.5890     1.3610 ca         1 FED       0.439900
     18 N6A          8.9010     5.9310     1.3150 nv         1 FED      -1.078900
     19 C5A          8.2750     3.6580     0.7100 ca         1 FED      -0.088600
     20 N7A          7.1390     3.8810    -0.0610 nc         1 FED      -0.581100
     21 C8A          6.7850     2.6270    -0.4090 cd         1 FED       0.451700
     22 O4B          6.4170    -0.0930    -0.9670 os         1 FED      -0.403000
     23 O3P          2.0890    -1.7600    -2.6440 os         1 FED      -0.688800
     24 P            1.5590    -3.2190    -2.9100 p5         1 FED       1.459800
     25 O1P          1.8920    -4.1820    -1.8180 o          1 FED      -0.851000
     26 O2P          1.8790    -3.7480    -4.2690 o          1 FED      -0.851000
     27 O5          -0.0070    -2.8510    -2.8530 os         1 FED      -0.567400
     28 C5          -0.6040    -2.5990    -1.5720 c3         1 FED       0.236600
     29 C4          -2.0280    -1.9900    -1.7730 c3         1 FED       0.149300
     30 O4          -2.8990    -2.9460    -2.4080 oh         1 FED      -0.675000
     31 C3          -2.6750    -1.5170    -0.4240 c3         1 FED       0.092300
     32 O3          -1.8330    -0.5190     0.1920 oh         1 FED      -0.661000
     33 C2          -4.1320    -0.9550    -0.5720 c3         1 FED       0.125300
     34 O2          -4.9940    -1.9570    -1.1520 oh         1 FED      -0.722000
     35 C1          -4.7380    -0.4760     0.7860 c3         1 FED       0.173800
     36 N10         -6.0620     0.2220     0.6770 nh         1 FED      -0.693400
     37 C10         -7.2630    -0.5160     0.6210 c2         1 FED       0.750200
     38 N1          -7.1680    -1.8080     0.5000 ne         1 FED      -0.764100
     39 C12         -8.2750    -2.6430     0.5980 c          1 FED       0.742400
     40 O7          -8.2700    -3.8120     0.2700 o          1 FED      -0.490000
     41 C9A         -6.1280     1.6570     0.8430 ca         1 FED       0.253000
     42 C9          -4.9920     2.4770     0.6440 ca         1 FED      -0.089000
     43 C8          -5.0330     3.8690     0.8680 ca         1 FED      -0.075300
     44 C8M         -3.7700     4.6970     0.6440 c3         1 FED      -0.045800
     45 C7          -6.2350     4.4770     1.2920 ca         1 FED      -0.061300
     46 C7M         -6.3190     5.9790     1.5460 c3         1 FED      -0.043800
     47 C6          -7.3850     3.6850     1.4590 ca         1 FED      -0.139000
     48 C5X         -7.3460     2.3040     1.2250 ca         1 FED       0.247000
     49 N5          -8.5420     1.5770     1.3130 nu         1 FED      -0.951200
     50 C4X         -8.6410     0.2340     0.7150 c6         1 FED       0.271900
     51 O4X         -9.1760     0.5820    -0.5530 oh         1 FED      -0.641000
     52 C11         -9.5890    -0.7630     1.4570 c          1 FED       0.563000
     53 N3          -9.3600    -2.0740     1.1800 ns         1 FED      -0.485500
     54 O6         -10.5280    -0.4220     2.1670 o          1 FED      -0.547000
     55 H51A         3.7500     0.6170    -0.2180 h1         1 FED       0.017700
     56 H52A         3.2230    -1.0700    -0.2610 h1         1 FED       0.017700
     57 H4B          5.4990    -1.8810    -0.4550 h1         1 FED       0.094700
     58 H3B          5.3900     0.4600     1.5570 h1         1 FED       0.052700
     59 HO3A         5.0540    -1.1130     3.0440 ho         1 FED       0.496000
     60 H2B          7.7110    -0.1650     2.1040 h1         1 FED       0.054700
     61 HO2A         6.9440    -2.5190     1.5850 ho         1 FED       0.518000
     62 H1B          8.4780    -0.1280    -0.5460 h2         1 FED       0.107700
     63 H2A         11.2760     2.5180     2.6630 h5         1 FED       0.030100
     64 H61A         9.6820     6.5430     1.5340 hn         1 FED       0.499500
     65 H62A         8.2380     6.2670     0.6200 hn         1 FED       0.499500
     66 H8A          5.9320     2.3700    -1.0270 h5         1 FED       0.113800
     67 H5'1        -0.6850    -3.5270    -0.9920 h1         1 FED       0.020200
     68 H5'2         0.0150    -1.8970    -0.9980 h1         1 FED       0.020200
     69 H4          -1.9310    -1.1080    -2.4200 h1         1 FED       0.027700
     70 HO4         -3.8100    -2.6990    -2.0780 ho         1 FED       0.491000
     71 H3          -2.7310    -2.3940     0.2370 h1         1 FED       0.085700
     72 HO3         -1.6480     0.1800    -0.4750 ho         1 FED       0.441000
     73 H2          -4.0890    -0.0820    -1.2390 h1         1 FED       0.059700
     74 HO2         -5.8250    -1.9630    -0.5910 ho         1 FED       0.535000
     75 H1'1        -4.8180    -1.3370     1.4640 h1         1 FED       0.084700
     76 H1'2        -4.0110     0.1750     1.2840 h1         1 FED       0.084700
     77 H9          -4.0600     2.0430     0.3000 ha         1 FED       0.137000
     78 HM81        -3.9290     5.4570    -0.1310 hc         1 FED       0.045700
     79 HM82        -3.4660     5.2110     1.5640 hc         1 FED       0.045700
     80 HM83        -2.9240     4.0780     0.3230 hc         1 FED       0.045700
     81 HM71        -6.0830     6.5470     0.6390 hc         1 FED       0.040367
     82 HM72        -7.3220     6.2830     1.8690 hc         1 FED       0.040367
     83 HM73        -5.6170     6.2870     2.3310 hc         1 FED       0.040367
     84 H6          -8.3230     4.1490     1.7510 ha         1 FED       0.111000
     85 HN5         -9.2710     1.9070     1.9550 hn         1 FED       0.487000
     86 HO4X        -9.1890     1.5600    -0.4850 ho         1 FED       0.460000
     87 HN3        -10.0850    -2.7160     1.4560 hn         1 FED       0.335500
@<TRIPOS>BOND
     1     1     2 1   
     2     2     3 1   
     3     2     4 1   
     4     2    23 1   
     5     4     5 1   
     6     5     6 1   
     7     5    55 1   
     8     5    56 1   
     9     6     7 1   
    10     6    22 1   
    11     6    57 1   
    12     7     8 1   
    13     7     9 1   
    14     7    58 1   
    15     8    59 1   
    16     9    10 1   
    17     9    11 1   
    18     9    60 1   
    19    10    61 1   
    20    11    12 1   
    21    11    22 1   
    22    11    62 1   
    23    12    13 1   
    24    12    21 1   
    25    13    14 ar  
    26    13    19 ar  
    27    14    15 ar  
    28    15    16 ar  
    29    15    63 1   
    30    16    17 ar  
    31    17    18 1   
    32    17    19 ar  
    33    18    64 1   
    34    18    65 1   
    35    19    20 1   
    36    20    21 2   
    37    21    66 1   
    38    23    24 1   
    39    24    25 1   
    40    24    26 1   
    41    24    27 1   
    42    27    28 1   
    43    28    29 1   
    44    28    67 1   
    45    28    68 1   
    46    29    30 1   
    47    29    31 1   
    48    29    69 1   
    49    30    70 1   
    50    31    32 1   
    51    31    33 1   
    52    31    71 1   
    53    32    72 1   
    54    33    34 1   
    55    33    35 1   
    56    33    73 1   
    57    34    74 1   
    58    35    36 1   
    59    35    75 1   
    60    35    76 1   
    61    36    37 1   
    62    36    41 1   
    63    37    38 2   
    64    37    50 1   
    65    38    39 1   
    66    39    40 2   
    67    39    53 1   
    68    41    42 ar  
    69    41    48 ar  
    70    42    43 ar  
    71    42    77 1   
    72    43    44 1   
    73    43    45 ar  
    74    44    78 1   
    75    44    79 1   
    76    44    80 1   
    77    45    46 1   
    78    45    47 ar  
    79    46    81 1   
    80    46    82 1   
    81    46    83 1   
    82    47    48 ar  
    83    47    84 1   
    84    48    49 1   
    85    49    50 1   
    86    49    85 1   
    87    50    51 1   
    88    50    52 1   
    89    51    86 1   
    90    52    53 1   
    91    52    54 2   
    92    53    87 1   
@<TRIPOS>SUBSTRUCTURE
     1 FED         1 TEMP              0 ****  ****    0 ROOT
