@<TRIPOS>MOLECULE
FED
   87    92     1     0     0
SMALL
abcg2


@<TRIPOS>ATOM
      1 O2A          3.4990    -3.6990    -0.7460 o          1 FED      -0.848500
      2 PA           3.7860    -2.8770     0.4710 p5         1 FED       1.456800
      3 O1A          4.4330    -3.4930     1.6710 o          1 FED      -0.848500
      4 O5B          4.6380    -1.5360     0.0190 os         1 FED      -0.558400
      5 C5B          5.9830    -1.7330    -0.3510 c3         1 FED       0.231600
      6 C4B          6.4060    -0.6470    -1.3090 c5         1 FED       0.153300
      7 C3B          7.8670    -0.7610    -1.7350 c5         1 FED       0.082300
      8 O3B          7.9910    -1.6290    -2.8250 oh         1 FED      -0.696000
      9 C2B          8.2110     0.6960    -2.0610 c5         1 FED       0.091300
     10 O2B          7.6880     1.0710    -3.3040 oh         1 FED      -0.708000
     11 C1B          7.4120     1.4280    -0.9840 c5         1 FED       0.315300
     12 N9A          8.2020     1.6130     0.2310 na         1 FED      -0.298300
     13 C4A          9.2220     2.5070     0.3680 ca         1 FED       0.101500
     14 N3A          9.6950     3.3570    -0.5420 nb         1 FED      -0.209000
     15 C2A         10.6920     4.0790    -0.0600 ca         1 FED       0.155900
     16 N1A         11.2310     4.0370     1.1550 nb         1 FED      -0.324000
     17 C6A         10.7450     3.1770     2.0570 ca         1 FED       0.439900
     18 N6A         11.2840     3.1340     3.2760 nv         1 FED      -1.078900
     19 C5A          9.6740     2.3500     1.6680 ca         1 FED      -0.088600
     20 N7A          8.9480     1.3900     2.3210 nc         1 FED      -0.581100
     21 C8A          8.0850     0.9790     1.4370 cd         1 FED       0.451700
     22 O4B          6.3020     0.6380    -0.6950 os         1 FED      -0.403000
     23 O3P          2.4640    -2.0060     0.8960 os         1 FED      -0.688800
     24 P            1.2940    -2.5520     1.9130 p5         1 FED       1.459800
     25 O1P          1.4670    -1.9290     3.2630 o          1 FED      -0.851000
     26 O2P          1.1410    -4.0340     1.7750 o          1 FED      -0.851000
     27 O5           0.0830    -1.7840     1.1110 os         1 FED      -0.567400
     28 C5          -1.1650    -1.6750     1.7630 c3         1 FED       0.236600
     29 C4          -2.1980    -1.2370     0.7390 c3         1 FED       0.149300
     30 O4          -2.2730    -2.2430    -0.2400 oh         1 FED      -0.675000
     31 C3          -3.5640    -0.9780     1.4030 c3         1 FED       0.092300
     32 O3          -3.4490    -0.1170     2.5150 oh         1 FED      -0.661000
     33 C2          -4.5940    -0.3960     0.4150 c3         1 FED       0.125300
     34 O2          -4.7210    -1.1760    -0.7560 oh         1 FED      -0.722000
     35 C1          -5.9390    -0.2180     1.1190 c3         1 FED       0.173800
     36 N10         -6.9750     0.3360     0.2470 nh         1 FED      -0.693400
     37 C10         -7.7240    -0.4950    -0.4810 c2         1 FED       0.750200
     38 N1          -7.4980    -1.7740    -0.4650 ne         1 FED      -0.764100
     39 C12         -8.3340    -2.6410    -1.1000 c          1 FED       0.742400
     40 O7          -8.1020    -3.8270    -1.1770 o          1 FED      -0.490000
     41 C9A         -7.2290     1.7240     0.2630 ca         1 FED       0.253000
     42 C9          -6.3050     2.6460     0.7390 ca         1 FED      -0.089000
     43 C8          -6.6120     3.9970     0.8280 ca         1 FED      -0.075300
     44 C8M         -5.5900     4.9680     1.3430 c3         1 FED      -0.045800
     45 C7          -7.8830     4.4370     0.4310 ca         1 FED      -0.061300
     46 C7M         -8.2530     5.8860     0.5330 c3         1 FED      -0.043800
     47 C6          -8.7910     3.5160    -0.0730 ca         1 FED      -0.139000
     48 C5X         -8.4780     2.1660    -0.1650 ca         1 FED       0.247000
     49 N5          -9.3650     1.2170    -0.6410 nu         1 FED      -0.951200
     50 C4X         -8.7810     0.1450    -1.3550 c6         1 FED       0.271900
     51 O4X         -8.0820     0.4880    -2.5270 oh         1 FED      -0.641000
     52 C11         -9.8790    -0.8480    -1.7300 c          1 FED       0.563000
     53 N3          -9.5250    -2.1480    -1.6410 ns         1 FED      -0.485500
     54 O6         -10.9460    -0.4650    -2.1520 o          1 FED      -0.547000
     55 H51A         6.6360    -1.7330     0.5300 h1         1 FED       0.017700
     56 H52A         6.1360    -2.6910    -0.8640 h1         1 FED       0.017700
     57 H4B          5.7580    -0.6740    -2.1930 h1         1 FED       0.094700
     58 H3B          8.4780    -1.0940    -0.8850 h1         1 FED       0.052700
     59 HO3A         8.9040    -1.9300    -2.8810 ho         1 FED       0.496000
     60 H2B          9.2860     0.9020    -1.9910 h1         1 FED       0.054700
     61 HO2A         7.8190     0.3340    -3.9130 ho         1 FED       0.518000
     62 H1B          7.1020     2.4210    -1.3210 h2         1 FED       0.107700
     63 H2A         11.1330     4.8000    -0.7400 h5         1 FED       0.030100
     64 H61A        12.0500     3.7380     3.5150 hn         1 FED       0.499500
     65 H62A        10.9440     2.4940     3.9730 hn         1 FED       0.499500
     66 H8A          7.3330     0.2270     1.6180 h5         1 FED       0.113800
     67 H5'1        -1.4810    -2.6360     2.1930 h1         1 FED       0.020200
     68 H5'2        -1.1090    -0.9520     2.5790 h1         1 FED       0.020200
     69 H4          -1.8570    -0.2820     0.2990 h1         1 FED       0.027700
     70 HO4         -3.0540    -2.0570    -0.7800 ho         1 FED       0.491000
     71 H3          -3.9440    -1.9300     1.7940 h1         1 FED       0.085700
     72 HO3         -3.0160     0.6990     2.2390 ho         1 FED       0.441000
     73 H2          -4.2210     0.5830     0.0860 h1         1 FED       0.059700
     74 HO2         -5.4370    -1.8190    -0.6310 ho         1 FED       0.535000
     75 H1'1        -6.2930    -1.1780     1.4960 h1         1 FED       0.084700
     76 H1'2        -5.8400     0.4360     1.9810 h1         1 FED       0.084700
     77 H9          -5.3230     2.3240     1.0560 ha         1 FED       0.137000
     78 HM81        -5.4020     5.7700     0.6250 hc         1 FED       0.045700
     79 HM82        -5.9180     5.4460     2.2690 hc         1 FED       0.045700
     80 HM83        -4.6410     4.4750     1.5450 hc         1 FED       0.045700
     81 HM71        -7.5900     6.5130    -0.0670 hc         1 FED       0.040367
     82 HM72        -9.2720     6.0630     0.1940 hc         1 FED       0.040367
     83 HM73        -8.1770     6.2430     1.5620 hc         1 FED       0.040367
     84 H6          -9.7690     3.8470    -0.4040 ha         1 FED       0.111000
     85 HN5        -10.2430     1.5620    -1.0080 hn         1 FED       0.487000
     86 HO4X        -8.6750     0.9540    -3.1330 ho         1 FED       0.460000
     87 HN3        -10.1790    -2.8380    -1.9930 hn         1 FED       0.335500
@<TRIPOS>BOND
     1     1     2 1   
     2     2     3 1   
     3     2     4 1   
     4     2    23 1   
     5     4     5 1   
     6     5     6 1   
     7     5    55 1   
     8     5    56 1   
     9     6     7 1   
    10     6    22 1   
    11     6    57 1   
    12     7     8 1   
    13     7     9 1   
    14     7    58 1   
    15     8    59 1   
    16     9    10 1   
    17     9    11 1   
    18     9    60 1   
    19    10    61 1   
    20    11    12 1   
    21    11    22 1   
    22    11    62 1   
    23    12    13 1   
    24    12    21 1   
    25    13    14 ar  
    26    13    19 ar  
    27    14    15 ar  
    28    15    16 ar  
    29    15    63 1   
    30    16    17 ar  
    31    17    18 1   
    32    17    19 ar  
    33    18    64 1   
    34    18    65 1   
    35    19    20 1   
    36    20    21 2   
    37    21    66 1   
    38    23    24 1   
    39    24    25 1   
    40    24    26 1   
    41    24    27 1   
    42    27    28 1   
    43    28    29 1   
    44    28    67 1   
    45    28    68 1   
    46    29    30 1   
    47    29    31 1   
    48    29    69 1   
    49    30    70 1   
    50    31    32 1   
    51    31    33 1   
    52    31    71 1   
    53    32    72 1   
    54    33    34 1   
    55    33    35 1   
    56    33    73 1   
    57    34    74 1   
    58    35    36 1   
    59    35    75 1   
    60    35    76 1   
    61    36    37 1   
    62    36    41 1   
    63    37    38 2   
    64    37    50 1   
    65    38    39 1   
    66    39    40 2   
    67    39    53 1   
    68    41    42 ar  
    69    41    48 ar  
    70    42    43 ar  
    71    42    77 1   
    72    43    44 1   
    73    43    45 ar  
    74    44    78 1   
    75    44    79 1   
    76    44    80 1   
    77    45    46 1   
    78    45    47 ar  
    79    46    81 1   
    80    46    82 1   
    81    46    83 1   
    82    47    48 ar  
    83    47    84 1   
    84    48    49 1   
    85    49    50 1   
    86    49    85 1   
    87    50    51 1   
    88    50    52 1   
    89    51    86 1   
    90    52    53 1   
    91    52    54 2   
    92    53    87 1   
@<TRIPOS>SUBSTRUCTURE
     1 FED         1 TEMP              0 ****  ****    0 ROOT
