@<TRIPOS>MOLECULE
FEE
  126   126     1     0     0
SMALL
abcg2


@<TRIPOS>ATOM
      1 N2           6.0440     1.1870     0.7880 ns         1 FEE      -0.505900
      2 C3           8.1640     2.2760     0.3560 c3         1 FEE       0.144300
      3 C4           9.6770     2.2720     0.6090 c3         1 FEE       0.139300
      4 C5          10.4060     3.2850    -0.2680 c3         1 FEE      -0.107400
      5 C6          11.9220     3.2350    -0.1130 c3         1 FEE      -0.071400
      6 C7          12.6440     4.2060    -1.0390 c3         1 FEE      -0.076400
      7 C8          14.1610     4.1370    -0.9120 c3         1 FEE      -0.074400
      8 C9          14.8810     5.1070    -1.8390 c3         1 FEE      -0.089100
      9 C1           8.0290    -0.0600     1.4760 c3         1 FEE       0.136600
     10 CAX        -24.0200    -1.5490    -1.2360 c3         1 FEE      -0.088100
     11 CAW        -22.8940    -0.8170    -0.5200 c3         1 FEE      -0.074400
     12 CAV        -21.5110    -1.2660    -0.9760 c3         1 FEE      -0.075400
     13 CAU        -20.3740    -0.5400    -0.2670 c3         1 FEE      -0.074400
     14 CAT        -18.9940    -0.9920    -0.7260 c3         1 FEE      -0.074400
     15 CAS        -17.8540    -0.2670    -0.0220 c3         1 FEE      -0.074400
     16 CAR        -16.4760    -0.7210    -0.4850 c3         1 FEE      -0.074400
     17 CAQ        -15.3320     0.0020     0.2150 c3         1 FEE      -0.074400
     18 CAP        -13.9570    -0.4550    -0.2550 c3         1 FEE      -0.074400
     19 CAO        -12.8080     0.2660     0.4400 c3         1 FEE      -0.074400
     20 CAN        -11.4370    -0.1970    -0.0360 c3         1 FEE      -0.074400
     21 CAM        -10.2810     0.5190     0.6520 c3         1 FEE      -0.074400
     22 CAL         -8.9150     0.0500     0.1670 c3         1 FEE      -0.074400
     23 CAK         -7.7500     0.7560     0.8470 c3         1 FEE      -0.073400
     24 CAJ         -6.3920     0.2750     0.3500 c3         1 FEE      -0.074400
     25 CAI         -5.2120     0.9660     1.0200 c3         1 FEE      -0.073400
     26 CAH         -3.8670     0.4660     0.5080 c3         1 FEE      -0.075400
     27 CAG         -2.6670     1.1320     1.1690 c3         1 FEE      -0.073400
     28 CAF         -1.3400     0.6030     0.6400 c3         1 FEE      -0.075400
     29 CAE         -0.1150     1.2280     1.2960 c3         1 FEE      -0.073400
     30 CAD          1.1880     0.6630     0.7480 c3         1 FEE      -0.076400
     31 CAC          2.4350     1.2210     1.4220 c3         1 FEE      -0.064400
     32 CAB          3.7030     0.6240     0.8270 c3         1 FEE      -0.160400
     33 CAA          4.9700     0.9840     1.5700 c          1 FEE       0.604100
     34 OAA          5.0130     1.0510     2.7930 o          1 FEE      -0.611100
     35 C2           7.3970     1.3120     1.2840 c3         1 FEE       0.122700
     36 O3           7.8840     1.9560    -0.9910 oh         1 FEE      -0.646000
     37 O4           9.9480     2.4770     1.9830 oh         1 FEE      -0.655000
     38 O1A          8.2510    -0.6440     0.2150 os         1 FEE      -0.468000
     39 C1A          8.5060    -2.0040     0.2150 c6         1 FEE       0.357300
     40 O6A          7.3540    -2.7630     0.4710 os         1 FEE      -0.450000
     41 C5M          6.3110    -2.5770    -0.4720 c6         1 FEE       0.173300
     42 C6A          5.1200    -3.3940    -0.0190 c3         1 FEE       0.168600
     43 O5A          4.6490    -2.8610     1.1970 oh         1 FEE      -0.716000
     44 C4A          6.7630    -2.9400    -1.8810 c6         1 FEE       0.147300
     45 O4A          6.9870    -4.3270    -1.9480 oh         1 FEE      -0.717000
     46 C3A          8.0240    -2.1480    -2.2260 c6         1 FEE       0.138300
     47 O3A          8.4590    -2.5770    -3.4970 oh         1 FEE      -0.676000
     48 C2A          9.0830    -2.3730    -1.1540 c6         1 FEE       0.116300
     49 O2A         10.2140    -1.6080    -1.4860 oh         1 FEE      -0.711000
     50 HN2          5.9430     1.0770    -0.2090 hn         1 FEE       0.324500
     51 H3           7.7830     3.2830     0.5850 h1         1 FEE       0.026700
     52 H4          10.0610     1.2750     0.3680 h1         1 FEE       0.100700
     53 H5          10.1530     3.0950    -1.3140 hc         1 FEE       0.041700
     54 H5A         10.0410     4.2950    -0.0410 hc         1 FEE       0.041700
     55 H6          12.2010     3.4490     0.9220 hc         1 FEE       0.046200
     56 H6A         12.2690     2.2160    -0.3200 hc         1 FEE       0.046200
     57 H7          12.3580     4.0000    -2.0760 hc         1 FEE       0.035700
     58 H7A         12.3080     5.2280    -0.8290 hc         1 FEE       0.035700
     59 H8          14.4470     4.3420     0.1250 hc         1 FEE       0.037700
     60 H8A         14.4940     3.1160    -1.1210 hc         1 FEE       0.037700
     61 H9          14.6390     4.9080    -2.8840 hc         1 FEE       0.031700
     62 H9A         14.5980     6.1400    -1.6270 hc         1 FEE       0.031700
     63 H9B         15.9640     5.0340    -1.7320 hc         1 FEE       0.031700
     64 H1           8.9700     0.0260     2.0320 h1         1 FEE       0.053700
     65 H1A          7.3490    -0.6660     2.0860 h1         1 FEE       0.053700
     66 HAX        -23.9620    -2.6260    -1.0640 hc         1 FEE       0.031367
     67 HAXA       -25.0000    -1.2130    -0.8960 hc         1 FEE       0.031367
     68 HAXB       -23.9710    -1.3880    -2.3150 hc         1 FEE       0.031367
     69 HAW        -22.9940     0.2610    -0.6830 hc         1 FEE       0.036700
     70 HAWA       -22.9850    -0.9690     0.5600 hc         1 FEE       0.036700
     71 HAV        -21.4100    -2.3450    -0.8130 hc         1 FEE       0.036700
     72 HAVA       -21.4190    -1.1150    -2.0570 hc         1 FEE       0.036700
     73 HAU        -20.4750     0.5390    -0.4300 hc         1 FEE       0.036700
     74 HAUA       -20.4650    -0.6920     0.8140 hc         1 FEE       0.036700
     75 HAT        -18.8930    -2.0710    -0.5630 hc         1 FEE       0.036700
     76 HATA       -18.9050    -0.8420    -1.8080 hc         1 FEE       0.036700
     77 HAS        -17.9540     0.8120    -0.1840 hc         1 FEE       0.036700
     78 HASA       -17.9420    -0.4180     1.0600 hc         1 FEE       0.036700
     79 HAR        -16.3760    -1.8000    -0.3220 hc         1 FEE       0.036700
     80 HARA       -16.3900    -0.5720    -1.5670 hc         1 FEE       0.036700
     81 HAQ        -15.4310     1.0810     0.0520 hc         1 FEE       0.037200
     82 HAQA       -15.4160    -0.1480     1.2970 hc         1 FEE       0.037200
     83 HAP        -13.8590    -1.5340    -0.0910 hc         1 FEE       0.036700
     84 HAPA       -13.8760    -0.3060    -1.3370 hc         1 FEE       0.036700
     85 HAO        -12.9050     1.3450     0.2770 hc         1 FEE       0.037700
     86 HAOA       -12.8870     0.1160     1.5220 hc         1 FEE       0.037700
     87 HAN        -11.3420    -1.2760     0.1260 hc         1 FEE       0.036700
     88 HANA       -11.3610    -0.0480    -1.1190 hc         1 FEE       0.036700
     89 HAM        -10.3730     1.5990     0.4890 hc         1 FEE       0.037700
     90 HAMA       -10.3540     0.3690     1.7350 hc         1 FEE       0.037700
     91 HAL         -8.8270    -1.0310     0.3280 hc         1 FEE       0.036700
     92 HALA        -8.8460     0.1980    -0.9170 hc         1 FEE       0.036700
     93 HAK         -7.8350     1.8370     0.6850 hc         1 FEE       0.037700
     94 HAKA        -7.8160     0.6070     1.9300 hc         1 FEE       0.037700
     95 HAJ         -6.3130    -0.8070     0.5070 hc         1 FEE       0.036700
     96 HAJA        -6.3300     0.4240    -0.7340 hc         1 FEE       0.036700
     97 HAI         -5.2840     2.0480     0.8610 hc         1 FEE       0.037700
     98 HAIA        -5.2690     0.8160     2.1040 hc         1 FEE       0.037700
     99 HAH         -3.8050    -0.6180     0.6600 hc         1 FEE       0.036700
    100 HAHA        -3.8130     0.6190    -0.5760 hc         1 FEE       0.036700
    101 HAG         -2.7180     2.2150     1.0140 hc         1 FEE       0.038200
    102 HAGA        -2.7160     0.9780     2.2520 hc         1 FEE       0.038200
    103 HAF         -1.3050    -0.4830     0.7810 hc         1 FEE       0.035700
    104 HAFA        -1.2920     0.7650    -0.4430 hc         1 FEE       0.035700
    105 HAE         -0.1350     2.3140     1.1540 hc         1 FEE       0.040200
    106 HAEA        -0.1580     1.0630     2.3780 hc         1 FEE       0.040200
    107 HAD          1.1820    -0.4270     0.8610 hc         1 FEE       0.034200
    108 HADA         1.2390     0.8510    -0.3300 hc         1 FEE       0.034200
    109 HAC          2.4550     2.3110     1.3220 hc         1 FEE       0.053200
    110 HACA         2.3940     1.0090     2.4930 hc         1 FEE       0.053200
    111 HAB          3.6400    -0.4700     0.8570 hc         1 FEE       0.059200
    112 HABA         3.7870     0.8910    -0.2300 hc         1 FEE       0.059200
    113 H2           7.3500     1.7720     2.2710 h1         1 FEE       0.090700
    114 HO3          7.7850     2.7760    -1.4820 ho         1 FEE       0.441000
    115 HO4          9.7050     3.3810     2.2080 ho         1 FEE       0.438000
    116 H1AA         9.2130    -2.2780     1.0120 h2         1 FEE       0.067700
    117 H5M          6.0010    -1.5240    -0.4960 h1         1 FEE       0.056700
    118 H6AA         4.3580    -3.3420    -0.8070 h1         1 FEE       0.036200
    119 H6AB         5.4040    -4.4480     0.0880 h1         1 FEE       0.036200
    120 HO5A         3.8640    -3.3530     1.4520 ho         1 FEE       0.504000
    121 H4A          5.9640    -2.6360    -2.5750 h1         1 FEE       0.047700
    122 HO4A         7.4050    -4.5180    -2.7950 ho         1 FEE       0.521000
    123 H3A          7.7620    -1.0810    -2.2430 h1         1 FEE       0.075700
    124 HO3A         9.3420    -2.2250    -3.6500 ho         1 FEE       0.468000
    125 H2A          9.3280    -3.4430    -1.1230 h1         1 FEE       0.062700
    126 HO2A        10.9710    -1.9450    -0.9970 ho         1 FEE       0.509000
@<TRIPOS>BOND
     1     1    33 1   
     2     1    35 1   
     3     1    50 1   
     4     2     3 1   
     5     2    35 1   
     6     2    36 1   
     7     2    51 1   
     8     3     4 1   
     9     3    37 1   
    10     3    52 1   
    11     4     5 1   
    12     4    53 1   
    13     4    54 1   
    14     5     6 1   
    15     5    55 1   
    16     5    56 1   
    17     6     7 1   
    18     6    57 1   
    19     6    58 1   
    20     7     8 1   
    21     7    59 1   
    22     7    60 1   
    23     8    61 1   
    24     8    62 1   
    25     8    63 1   
    26     9    35 1   
    27     9    38 1   
    28     9    64 1   
    29     9    65 1   
    30    10    11 1   
    31    10    66 1   
    32    10    67 1   
    33    10    68 1   
    34    11    12 1   
    35    11    69 1   
    36    11    70 1   
    37    12    13 1   
    38    12    71 1   
    39    12    72 1   
    40    13    14 1   
    41    13    73 1   
    42    13    74 1   
    43    14    15 1   
    44    14    75 1   
    45    14    76 1   
    46    15    16 1   
    47    15    77 1   
    48    15    78 1   
    49    16    17 1   
    50    16    79 1   
    51    16    80 1   
    52    17    18 1   
    53    17    81 1   
    54    17    82 1   
    55    18    19 1   
    56    18    83 1   
    57    18    84 1   
    58    19    20 1   
    59    19    85 1   
    60    19    86 1   
    61    20    21 1   
    62    20    87 1   
    63    20    88 1   
    64    21    22 1   
    65    21    89 1   
    66    21    90 1   
    67    22    23 1   
    68    22    91 1   
    69    22    92 1   
    70    23    24 1   
    71    23    93 1   
    72    23    94 1   
    73    24    25 1   
    74    24    95 1   
    75    24    96 1   
    76    25    26 1   
    77    25    97 1   
    78    25    98 1   
    79    26    27 1   
    80    26    99 1   
    81    26   100 1   
    82    27    28 1   
    83    27   101 1   
    84    27   102 1   
    85    28    29 1   
    86    28   103 1   
    87    28   104 1   
    88    29    30 1   
    89    29   105 1   
    90    29   106 1   
    91    30    31 1   
    92    30   107 1   
    93    30   108 1   
    94    31    32 1   
    95    31   109 1   
    96    31   110 1   
    97    32    33 1   
    98    32   111 1   
    99    32   112 1   
   100    33    34 2   
   101    35   113 1   
   102    36   114 1   
   103    37   115 1   
   104    38    39 1   
   105    39    40 1   
   106    39    48 1   
   107    39   116 1   
   108    40    41 1   
   109    41    42 1   
   110    41    44 1   
   111    41   117 1   
   112    42    43 1   
   113    42   118 1   
   114    42   119 1   
   115    43   120 1   
   116    44    45 1   
   117    44    46 1   
   118    44   121 1   
   119    45   122 1   
   120    46    47 1   
   121    46    48 1   
   122    46   123 1   
   123    47   124 1   
   124    48    49 1   
   125    48   125 1   
   126    49   126 1   
@<TRIPOS>SUBSTRUCTURE
     1 FEE         1 TEMP              0 ****  ****    0 ROOT
