@<TRIPOS>MOLECULE
FEE
  126   126     1     0     0
SMALL
No Charge or Current Charge


@<TRIPOS>ATOM
      1 N2           6.0010     0.1480     0.8410 ns         1 FEE      -0.505900
      2 C3           7.5440     2.0360     0.3020 c3         1 FEE       0.144300
      3 C4           8.9310     2.7230     0.5430 c3         1 FEE       0.139300
      4 C5           9.1050     4.0550    -0.2390 c3         1 FEE      -0.107400
      5 C6          10.5010     4.7070    -0.0780 c3         1 FEE      -0.071400
      6 C7          10.6610     5.9980    -0.9120 c3         1 FEE      -0.076400
      7 C8          12.0520     6.6510    -0.7550 c3         1 FEE      -0.074400
      8 C9          12.2110     7.9380    -1.5870 c3         1 FEE      -0.089100
      9 C1           8.4320    -0.3010     1.1480 c3         1 FEE       0.136600
     10 CAX        -24.2390     0.3850    -1.1750 c3         1 FEE      -0.088100
     11 CAW        -22.9640     0.9880    -0.5560 c3         1 FEE      -0.074400
     12 CAV        -21.6780     0.2400    -0.9710 c3         1 FEE      -0.075400
     13 CAU        -20.3990     0.8450    -0.3500 c3         1 FEE      -0.074400
     14 CAT        -19.1140     0.0970    -0.7660 c3         1 FEE      -0.074400
     15 CAS        -17.8350     0.7020    -0.1450 c3         1 FEE      -0.074400
     16 CAR        -16.5490    -0.0450    -0.5610 c3         1 FEE      -0.074400
     17 CAQ        -15.2710     0.5590     0.0600 c3         1 FEE      -0.074400
     18 CAP        -13.9850    -0.1880    -0.3560 c3         1 FEE      -0.074400
     19 CAO        -12.7070     0.4170     0.2650 c3         1 FEE      -0.074400
     20 CAN        -11.4210    -0.3310    -0.1510 c3         1 FEE      -0.074400
     21 CAM        -10.1430     0.2740     0.4700 c3         1 FEE      -0.074400
     22 CAL         -8.8570    -0.4740     0.0540 c3         1 FEE      -0.074400
     23 CAK         -7.5790     0.1310     0.6750 c3         1 FEE      -0.073400
     24 CAJ         -6.2930    -0.6170     0.2590 c3         1 FEE      -0.074400
     25 CAI         -5.0150    -0.0120     0.8800 c3         1 FEE      -0.073400
     26 CAH         -3.7290    -0.7600     0.4650 c3         1 FEE      -0.075400
     27 CAG         -2.4510    -0.1560     1.0860 c3         1 FEE      -0.073400
     28 CAF         -1.1650    -0.9040     0.6710 c3         1 FEE      -0.075400
     29 CAE          0.1130    -0.2990     1.2920 c3         1 FEE      -0.073400
     30 CAD          1.3990    -1.0480     0.8770 c3         1 FEE      -0.076400
     31 CAC          2.6770    -0.4430     1.4980 c3         1 FEE      -0.064400
     32 CAB          3.9640    -1.1940     1.0820 c3         1 FEE      -0.160400
     33 CAA          5.2110    -0.5640     1.7090 c          1 FEE       0.604100
     34 OAA          5.4990    -0.7050     2.8890 o          1 FEE      -0.611100
     35 C2           7.2950     0.7610     1.1810 c3         1 FEE       0.122700
     36 O3           7.3580     1.7340    -1.0990 oh         1 FEE      -0.646000
     37 O4           9.1080     2.9850     1.9460 oh         1 FEE      -0.655000
     38 O1A          8.4970    -0.8750    -0.1700 os         1 FEE      -0.468000
     39 C1A          9.5660    -1.8000    -0.4300 c6         1 FEE       0.357300
     40 O6A          9.4170    -2.9820     0.3870 os         1 FEE      -0.450000
     41 C5M          8.2250    -3.7670     0.1050 c6         1 FEE       0.173300
     42 C6A          8.1340    -4.9370     1.1400 c3         1 FEE       0.168600
     43 O5A          8.0820    -4.4880     2.5110 oh         1 FEE      -0.716000
     44 C4A          8.2300    -4.2750    -1.3740 c6         1 FEE       0.147300
     45 O4A          9.3110    -5.1900    -1.6510 oh         1 FEE      -0.717000
     46 C3A          8.3490    -3.0440    -2.3200 c6         1 FEE       0.138300
     47 O3A          8.4430    -3.4710    -3.6940 oh         1 FEE      -0.676000
     48 C2A          9.5820    -2.1570    -1.9530 c6         1 FEE       0.116300
     49 O2A          9.5790    -0.9600    -2.7680 oh         1 FEE      -0.711000
     50 HN2          5.7050     0.1950    -0.1270 hn         1 FEE       0.324500
     51 H3           6.7740     2.7620     0.5960 h1         1 FEE       0.026700
     52 H4           9.7090     2.0290     0.1920 h1         1 FEE       0.100700
     53 H5           8.9420     3.8670    -1.3070 hc         1 FEE       0.041700
     54 H5A          8.3320     4.7680     0.0760 hc         1 FEE       0.041700
     55 H6          10.6810     4.9430     0.9780 hc         1 FEE       0.046200
     56 H6A         11.2710     3.9870    -0.3800 hc         1 FEE       0.046200
     57 H7          10.4890     5.7670    -1.9710 hc         1 FEE       0.035700
     58 H7A          9.8890     6.7180    -0.6120 hc         1 FEE       0.035700
     59 H8          12.2260     6.8860     0.3020 hc         1 FEE       0.037700
     60 H8A         12.8260     5.9340    -1.0560 hc         1 FEE       0.037700
     61 H9          12.0770     7.7290    -2.6550 hc         1 FEE       0.031700
     62 H9A         11.4720     8.6890    -1.2850 hc         1 FEE       0.031700
     63 H9B         13.2120     8.3640    -1.4440 hc         1 FEE       0.031700
     64 H1           9.3870     0.1620     1.4250 h1         1 FEE       0.053700
     65 H1A          8.2150    -1.0790     1.8920 h1         1 FEE       0.053700
     66 HAX        -24.3650    -0.6600    -0.8650 hc         1 FEE       0.031367
     67 HAXA       -25.1230     0.9470    -0.8520 hc         1 FEE       0.031367
     68 HAXB       -24.1920     0.4180    -2.2700 hc         1 FEE       0.031367
     69 HAW        -22.8850     2.0400    -0.8550 hc         1 FEE       0.036700
     70 HAWA       -23.0570     0.9720     0.5370 hc         1 FEE       0.036700
     71 HAV        -21.7610    -0.8120    -0.6710 hc         1 FEE       0.036700
     72 HAVA       -21.5890     0.2560    -2.0650 hc         1 FEE       0.036700
     73 HAU        -20.3170     1.8970    -0.6500 hc         1 FEE       0.036700
     74 HAUA       -20.4880     0.8290     0.7430 hc         1 FEE       0.036700
     75 HAT        -19.1960    -0.9550    -0.4660 hc         1 FEE       0.036700
     76 HATA       -19.0250     0.1130    -1.8590 hc         1 FEE       0.036700
     77 HAS        -17.7530     1.7550    -0.4440 hc         1 FEE       0.036700
     78 HASA       -17.9240     0.6860     0.9490 hc         1 FEE       0.036700
     79 HAR        -16.6320    -1.0980    -0.2610 hc         1 FEE       0.036700
     80 HARA       -16.4610    -0.0290    -1.6540 hc         1 FEE       0.036700
     81 HAQ        -15.1890     1.6120    -0.2390 hc         1 FEE       0.037200
     82 HAQA       -15.3590     0.5430     1.1540 hc         1 FEE       0.037200
     83 HAP        -14.0680    -1.2410    -0.0570 hc         1 FEE       0.036700
     84 HAPA       -13.8970    -0.1720    -1.4490 hc         1 FEE       0.036700
     85 HAO        -12.6240     1.4690    -0.0350 hc         1 FEE       0.037700
     86 HAOA       -12.7950     0.4000     1.3580 hc         1 FEE       0.037700
     87 HAN        -11.5040    -1.3830     0.1480 hc         1 FEE       0.036700
     88 HANA       -11.3330    -0.3150    -1.2450 hc         1 FEE       0.036700
     89 HAM        -10.0600     1.3260     0.1700 hc         1 FEE       0.037700
     90 HAMA       -10.2310     0.2580     1.5630 hc         1 FEE       0.037700
     91 HAL         -8.9400    -1.5260     0.3540 hc         1 FEE       0.036700
     92 HALA        -8.7690    -0.4580    -1.0400 hc         1 FEE       0.036700
     93 HAK         -7.4960     1.1830     0.3750 hc         1 FEE       0.037700
     94 HAKA        -7.6670     0.1150     1.7680 hc         1 FEE       0.037700
     95 HAJ         -6.3760    -1.6690     0.5590 hc         1 FEE       0.036700
     96 HAJA        -6.2040    -0.6010    -0.8340 hc         1 FEE       0.036700
     97 HAI         -4.9320     1.0400     0.5800 hc         1 FEE       0.037700
     98 HAIA        -5.1030    -0.0270     1.9740 hc         1 FEE       0.037700
     99 HAH         -3.8120    -1.8130     0.7650 hc         1 FEE       0.036700
    100 HAHA        -3.6400    -0.7450    -0.6290 hc         1 FEE       0.036700
    101 HAG         -2.3670     0.8960     0.7850 hc         1 FEE       0.038200
    102 HAGA        -2.5390    -0.1710     2.1790 hc         1 FEE       0.038200
    103 HAF         -1.2480    -1.9560     0.9720 hc         1 FEE       0.035700
    104 HAFA        -1.0760    -0.8890    -0.4220 hc         1 FEE       0.035700
    105 HAE          0.1960     0.7530     0.9910 hc         1 FEE       0.040200
    106 HAEA         0.0240    -0.3140     2.3850 hc         1 FEE       0.040200
    107 HAD          1.3160    -2.1000     1.1780 hc         1 FEE       0.034200
    108 HADA         1.4870    -1.0340    -0.2160 hc         1 FEE       0.034200
    109 HAC          2.7620     0.6090     1.1970 hc         1 FEE       0.053200
    110 HACA         2.5890    -0.4560     2.5920 hc         1 FEE       0.053200
    111 HAB          3.8870    -2.2330     1.4250 hc         1 FEE       0.059200
    112 HABA         4.0420    -1.1690    -0.0120 hc         1 FEE       0.059200
    113 H2           7.2290     1.1100     2.2200 h1         1 FEE       0.090700
    114 HO3          7.1910     2.5840    -1.5600 ho         1 FEE       0.441000
    115 HO4          8.6890     3.8520     2.1350 ho         1 FEE       0.438000
    116 H1AA        10.5220    -1.3140    -0.1810 h2         1 FEE       0.067700
    117 H5M          7.3400    -3.1310     0.2560 h1         1 FEE       0.056700
    118 H6AA         7.2390    -5.5280     0.9060 h1         1 FEE       0.036200
    119 H6AB         9.0030    -5.5940     0.9950 h1         1 FEE       0.036200
    120 HO5A         8.1230    -5.2930     3.0780 ho         1 FEE       0.504000
    121 H4A          7.2660    -4.7680    -1.5710 h1         1 FEE       0.047700
    122 HO4A         9.4090    -5.1560    -2.6340 ho         1 FEE       0.521000
    123 H3A          7.4420    -2.4340    -2.1820 h1         1 FEE       0.075700
    124 HO3A         8.7530    -2.6770    -4.1890 ho         1 FEE       0.468000
    125 H2A         10.4970    -2.7360    -2.1460 h1         1 FEE       0.062700
    126 HO2A         9.0100    -0.3130    -2.2810 ho         1 FEE       0.509000
@<TRIPOS>BOND
     1     1    33 1   
     2     1    35 1   
     3     1    50 1   
     4     2     3 1   
     5     2    35 1   
     6     2    36 1   
     7     2    51 1   
     8     3     4 1   
     9     3    37 1   
    10     3    52 1   
    11     4     5 1   
    12     4    53 1   
    13     4    54 1   
    14     5     6 1   
    15     5    55 1   
    16     5    56 1   
    17     6     7 1   
    18     6    57 1   
    19     6    58 1   
    20     7     8 1   
    21     7    59 1   
    22     7    60 1   
    23     8    61 1   
    24     8    62 1   
    25     8    63 1   
    26     9    35 1   
    27     9    38 1   
    28     9    64 1   
    29     9    65 1   
    30    10    11 1   
    31    10    66 1   
    32    10    67 1   
    33    10    68 1   
    34    11    12 1   
    35    11    69 1   
    36    11    70 1   
    37    12    13 1   
    38    12    71 1   
    39    12    72 1   
    40    13    14 1   
    41    13    73 1   
    42    13    74 1   
    43    14    15 1   
    44    14    75 1   
    45    14    76 1   
    46    15    16 1   
    47    15    77 1   
    48    15    78 1   
    49    16    17 1   
    50    16    79 1   
    51    16    80 1   
    52    17    18 1   
    53    17    81 1   
    54    17    82 1   
    55    18    19 1   
    56    18    83 1   
    57    18    84 1   
    58    19    20 1   
    59    19    85 1   
    60    19    86 1   
    61    20    21 1   
    62    20    87 1   
    63    20    88 1   
    64    21    22 1   
    65    21    89 1   
    66    21    90 1   
    67    22    23 1   
    68    22    91 1   
    69    22    92 1   
    70    23    24 1   
    71    23    93 1   
    72    23    94 1   
    73    24    25 1   
    74    24    95 1   
    75    24    96 1   
    76    25    26 1   
    77    25    97 1   
    78    25    98 1   
    79    26    27 1   
    80    26    99 1   
    81    26   100 1   
    82    27    28 1   
    83    27   101 1   
    84    27   102 1   
    85    28    29 1   
    86    28   103 1   
    87    28   104 1   
    88    29    30 1   
    89    29   105 1   
    90    29   106 1   
    91    30    31 1   
    92    30   107 1   
    93    30   108 1   
    94    31    32 1   
    95    31   109 1   
    96    31   110 1   
    97    32    33 1   
    98    32   111 1   
    99    32   112 1   
   100    33    34 2   
   101    35   113 1   
   102    36   114 1   
   103    37   115 1   
   104    38    39 1   
   105    39    40 1   
   106    39    48 1   
   107    39   116 1   
   108    40    41 1   
   109    41    42 1   
   110    41    44 1   
   111    41   117 1   
   112    42    43 1   
   113    42   118 1   
   114    42   119 1   
   115    43   120 1   
   116    44    45 1   
   117    44    46 1   
   118    44   121 1   
   119    45   122 1   
   120    46    47 1   
   121    46    48 1   
   122    46   123 1   
   123    47   124 1   
   124    48    49 1   
   125    48   125 1   
   126    49   126 1   
@<TRIPOS>SUBSTRUCTURE
     1 FEE         1 TEMP              0 ****  ****    0 ROOT
