@<TRIPOS>MOLECULE
FEF
   46    49     1     0     0
SMALL
No Charge or Current Charge


@<TRIPOS>ATOM
      1 OAV         53.9900    58.8140    20.8090 o          1 FEF      -0.591000
      2 CAT         53.4670    59.9150    20.7120 c          1 FEF       0.569200
      3 CAR         52.7510    60.5480    19.5680 cc         1 FEF      -0.219400
      4 CAS         52.2760    61.8690    20.0250 ca         1 FEF      -0.057800
      5 CAX         51.3380    62.7870    19.5160 ca         1 FEF      -0.065000
      6 CAY         51.0470    63.9460    20.2700 ca         1 FEF      -0.145000
      7 CAZ         51.6360    64.1530    21.5390 ca         1 FEF      -0.081000
      8 CBA         52.4930    63.1790    22.0870 ca         1 FEF      -0.144000
      9 CAW         52.7730    62.0510    21.3100 ca         1 FEF       0.046600
     10 NAU         53.4590    60.8930    21.6640 ns         1 FEF      -0.391100
     11 CAI         52.6430    60.0040    18.2840 cd         1 FEF       0.068300
     12 CAG         52.3310    60.5940    17.0030 cd         1 FEF       0.457200
     13 CAD         52.4180    59.4770    16.0630 ca         1 FEF      -0.228900
     14 CAC         52.2070    59.3790    14.6720 ca         1 FEF      -0.016000
     15 CAA         52.4030    58.1260    14.0550 ca         1 FEF      -0.155000
     16 CAB         52.8050    57.0040    14.8130 ca         1 FEF      -0.058000
     17 CAF         53.0140    57.1230    16.2010 ca         1 FEF      -0.147000
     18 CAE         52.8160    58.3710    16.8060 ca         1 FEF       0.039800
     19 NAH         52.9810    58.6500    18.1630 na         1 FEF      -0.287700
     20 NAJ         52.1810    61.8600    16.7350 n2         1 FEF      -0.296700
     21 OAK         52.0150    62.2250    15.3790 os         1 FEF      -0.307000
     22 CAL         51.8770    63.6540    15.2350 c3         1 FEF       0.169600
     23 CAM         50.4290    64.0640    15.5980 c3         1 FEF      -0.139400
     24 CAN         50.1770    65.5850    15.4930 c3         1 FEF       0.129300
     25 OAQ         50.3610    66.0060    14.1350 oh         1 FEF      -0.651000
     26 CAO         48.7470    65.9840    15.9500 c3         1 FEF       0.127600
     27 OAP         48.5410    67.3980    15.7680 oh         1 FEF      -0.646000
     28 HAU         53.8740    60.7550    22.5770 hn         1 FEF       0.341500
     29 HAX         50.7970    62.6080    18.5970 ha         1 FEF       0.133000
     30 HAY         50.3390    64.6740    19.8820 ha         1 FEF       0.108000
     31 HAZ         51.3900    65.0440    22.1130 ha         1 FEF       0.114000
     32 HBA         52.9000    63.2880    23.0890 ha         1 FEF       0.119000
     33 HAC         51.8930    60.2260    14.0690 ha         1 FEF       0.133000
     34 HAA         52.2430    58.0240    12.9840 ha         1 FEF       0.120000
     35 HAB         52.9530    56.0440    14.3230 ha         1 FEF       0.117000
     36 HAF         53.3240    56.2620    16.7880 ha         1 FEF       0.129000
     37 HAL1        52.5970    64.1890    15.8680 h1         1 FEF       0.065700
     38 HAL2        52.0750    63.9400    14.1940 h1         1 FEF       0.065700
     39 HAM1        49.7300    63.5310    14.9420 hc         1 FEF       0.060200
     40 HAM2        50.2070    63.7480    16.6230 hc         1 FEF       0.060200
     41 HAN         50.8960    66.0990    16.1480 h1         1 FEF       0.071700
     42 HAQ         49.8200    66.8230    14.0440 ho         1 FEF       0.440000
     43 HAO1        48.0120    65.4150    15.3640 h1         1 FEF       0.049200
     44 HAO2        48.6120    65.7070    17.0040 h1         1 FEF       0.049200
     45 HAP         48.9810    67.8580    16.5190 ho         1 FEF       0.440000
     46 HN1         53.3050    58.0310    18.9020 hn         1 FEF       0.401000
@<TRIPOS>BOND
     1     1     2 2   
     2     2     3 1   
     3     2    10 1   
     4     3     4 1   
     5     3    11 2   
     6     4     5 ar  
     7     4     9 ar  
     8     5     6 ar  
     9     5    29 1   
    10     6     7 ar  
    11     6    30 1   
    12     7     8 ar  
    13     7    31 1   
    14     8     9 ar  
    15     8    32 1   
    16     9    10 1   
    17    10    28 1   
    18    11    12 1   
    19    11    19 1   
    20    12    13 1   
    21    12    20 2   
    22    13    14 ar  
    23    13    18 ar  
    24    14    15 ar  
    25    14    33 1   
    26    15    16 ar  
    27    15    34 1   
    28    16    17 ar  
    29    16    35 1   
    30    17    18 ar  
    31    17    36 1   
    32    18    19 1   
    33    19    46 1   
    34    20    21 1   
    35    21    22 1   
    36    22    23 1   
    37    22    37 1   
    38    22    38 1   
    39    23    24 1   
    40    23    39 1   
    41    23    40 1   
    42    24    25 1   
    43    24    26 1   
    44    24    41 1   
    45    25    42 1   
    46    26    27 1   
    47    26    43 1   
    48    26    44 1   
    49    27    45 1   
@<TRIPOS>SUBSTRUCTURE
     1 FEF         1 TEMP              0 ****  ****    0 ROOT
