@<TRIPOS>MOLECULE
FEF
   46    49     1     0     0
SMALL
abcg2


@<TRIPOS>ATOM
      1 OAV         53.1410    58.7360    20.7210 o          1 FEF      -0.591000
      2 CAT         52.8750    59.9430    20.6350 c          1 FEF       0.569200
      3 CAR         52.6080    60.7520    19.4240 cc         1 FEF      -0.219400
      4 CAS         52.3460    62.1090    19.8880 ca         1 FEF      -0.057800
      5 CAX         52.0240    63.3240    19.2810 ca         1 FEF      -0.065000
      6 CAY         51.8240    64.4580    20.0690 ca         1 FEF      -0.145000
      7 CAZ         51.9430    64.4030    21.4550 ca         1 FEF      -0.081000
      8 CBA         52.2650    63.2020    22.0910 ca         1 FEF      -0.144000
      9 CAW         52.4580    62.0840    21.3020 ca         1 FEF       0.046600
     10 NAU         52.7750    60.7930    21.7060 ns         1 FEF      -0.391100
     11 CAI         52.6350    60.1450    18.1880 cd         1 FEF       0.068300
     12 CAG         52.4130    60.6600    16.8090 cd         1 FEF       0.457200
     13 CAD         52.5440    59.5170    15.9070 ca         1 FEF      -0.228900
     14 CAC         52.4360    59.3600    14.5280 ca         1 FEF      -0.016000
     15 CAA         52.6280    58.0910    13.9850 ca         1 FEF      -0.155000
     16 CAB         52.9240    57.0010    14.8060 ca         1 FEF      -0.058000
     17 CAF         53.0360    57.1410    16.1890 ca         1 FEF      -0.147000
     18 CAE         52.8420    58.4060    16.7180 ca         1 FEF       0.039800
     19 NAH         52.8930    58.8110    18.0430 na         1 FEF      -0.287700
     20 NAJ         52.1740    61.9030    16.5920 n2         1 FEF      -0.296700
     21 OAK         52.0080    62.2030    15.2680 os         1 FEF      -0.307000
     22 CAL         51.7100    63.6110    15.1340 c3         1 FEF       0.169600
     23 CAM         50.3050    63.9350    15.6110 c3         1 FEF      -0.139400
     24 CAN         50.0790    65.4360    15.7680 c3         1 FEF       0.129300
     25 OAQ         50.3190    66.1460    14.5470 oh         1 FEF      -0.651000
     26 CAO         48.6890    65.7170    16.3260 c3         1 FEF       0.127600
     27 OAP         48.4600    67.0940    16.6110 oh         1 FEF      -0.646000
     28 HAU         52.9070    60.4960    22.6600 hn         1 FEF       0.341500
     29 HAX         51.9310    63.3810    18.2110 ha         1 FEF       0.133000
     30 HAY         51.5720    65.3950    19.5880 ha         1 FEF       0.108000
     31 HAZ         51.7850    65.2940    22.0490 ha         1 FEF       0.114000
     32 HBA         52.3610    63.1430    23.1680 ha         1 FEF       0.119000
     33 HAC         52.2070    60.2020    13.8940 ha         1 FEF       0.133000
     34 HAA         52.5470    57.9490    12.9160 ha         1 FEF       0.120000
     35 HAB         53.0690    56.0240    14.3630 ha         1 FEF       0.117000
     36 HAF         53.2650    56.2960    16.8250 ha         1 FEF       0.129000
     37 HAL1        52.4580    64.1740    15.6970 h1         1 FEF       0.065700
     38 HAL2        51.8390    63.8110    14.0720 h1         1 FEF       0.065700
     39 HAM1        49.5690    63.5170    14.9170 hc         1 FEF       0.060200
     40 HAM2        50.1480    63.4600    16.5810 hc         1 FEF       0.060200
     41 HAN         50.8210    65.8340    16.4680 h1         1 FEF       0.071700
     42 HAQ         49.6830    65.8360    13.8880 ho         1 FEF       0.440000
     43 HAO1        47.9360    65.4310    15.5880 h1         1 FEF       0.049200
     44 HAO2        48.5360    65.1050    17.2220 h1         1 FEF       0.049200
     45 HAP         49.0620    67.3620    17.3170 ho         1 FEF       0.440000
     46 HN1         53.0730    58.2320    18.8560 hn         1 FEF       0.401000
@<TRIPOS>BOND
     1     1     2 2   
     2     2     3 1   
     3     2    10 1   
     4     3     4 1   
     5     3    11 2   
     6     4     5 ar  
     7     4     9 ar  
     8     5     6 ar  
     9     5    29 1   
    10     6     7 ar  
    11     6    30 1   
    12     7     8 ar  
    13     7    31 1   
    14     8     9 ar  
    15     8    32 1   
    16     9    10 1   
    17    10    28 1   
    18    11    12 1   
    19    11    19 1   
    20    12    13 1   
    21    12    20 2   
    22    13    14 ar  
    23    13    18 ar  
    24    14    15 ar  
    25    14    33 1   
    26    15    16 ar  
    27    15    34 1   
    28    16    17 ar  
    29    16    35 1   
    30    17    18 ar  
    31    17    36 1   
    32    18    19 1   
    33    19    46 1   
    34    20    21 1   
    35    21    22 1   
    36    22    23 1   
    37    22    37 1   
    38    22    38 1   
    39    23    24 1   
    40    23    39 1   
    41    23    40 1   
    42    24    25 1   
    43    24    26 1   
    44    24    41 1   
    45    25    42 1   
    46    26    27 1   
    47    26    43 1   
    48    26    44 1   
    49    27    45 1   
@<TRIPOS>SUBSTRUCTURE
     1 FEF         1 TEMP              0 ****  ****    0 ROOT
