@<TRIPOS>MOLECULE
FEG
   58    61     1     0     0
SMALL
bcc


@<TRIPOS>ATOM
      1 N1           1.3260    -1.8550    -1.0900 nb         1 FEG      -0.734000
      2 C2           0.7700    -0.9150    -1.8180 ca         1 FEG       0.634600
      3 O2          -0.1730    -1.3700    -2.6710 oh         1 FEG      -0.641300
      4 C3           1.1040     0.4400    -1.7520 ca         1 FEG      -0.346600
      5 C3M          0.4880     1.4350    -2.6900 c3         1 FEG      -0.011800
      6 C4           2.0860     0.7680    -0.8210 ca         1 FEG       0.259100
      7 C5           2.7240    -0.2140    -0.0590 ca         1 FEG      -0.240600
      8 C5M          3.8520     0.1050     0.8770 c3         1 FEG      -0.024800
      9 C6           2.2820    -1.5250    -0.2260 ca         1 FEG       0.549600
     10 C7           2.8470    -2.6480     0.5820 c3         1 FEG      -0.277700
     11 C8           4.1200    -3.2940    -0.0100 c          1 FEG       0.938600
     12 O28          4.5770    -2.8150    -1.0640 o          1 FEG      -0.851300
     13 O18          4.5810    -4.2600     0.6310 o          1 FEG      -0.851300
     14 O3P          2.4900     2.0630    -0.7330 os         1 FEG      -0.488500
     15 P1           2.1080     3.0890     0.5160 p5         1 FEG       1.421800
     16 O1P          1.8010     2.3250     1.7630 o          1 FEG      -0.818000
     17 O2P          3.1770     4.1300     0.4650 o          1 FEG      -0.818000
     18 O5S          0.7290     3.7410    -0.0920 os         1 FEG      -0.568200
     19 C5S         -0.4040     3.9570     0.7170 c3         1 FEG       0.198400
     20 C4S         -1.6500     3.4210     0.0360 c5         1 FEG       0.130100
     21 C3S         -2.8540     3.4630     0.9710 c5         1 FEG       0.075100
     22 O3S         -4.0240     3.6070     0.2080 oh         1 FEG      -0.592800
     23 C2S         -2.7790     2.0710     1.6060 c5         1 FEG       0.048100
     24 O2S         -3.9900     1.5870     2.1080 oh         1 FEG      -0.583800
     25 C1S         -2.3300     1.2290     0.4120 c5         1 FEG       0.270800
     26 O4S         -1.4820     2.0540    -0.3290 os         1 FEG      -0.369600
     27 N9A         -1.6480     0.0170     0.7700 na         1 FEG      -0.207900
     28 C8A         -0.5340    -0.1170     1.5680 cc         1 FEG       0.423400
     29 N7A         -0.1810    -1.3530     1.7280 nd         1 FEG      -0.586000
     30 C5A         -1.0780    -2.0760     0.9850 cd         1 FEG       0.195800
     31 C4A         -1.9870    -1.2390     0.3700 cc         1 FEG       0.112800
     32 C6A         -1.1380    -3.4680     0.7070 c          1 FEG       0.674000
     33 O6A         -0.4350    -4.3730     1.1300 o          1 FEG      -0.588500
     34 N1A         -2.1830    -3.7480    -0.1840 ns         1 FEG      -0.516400
     35 C2A         -3.0440    -2.8400    -0.7260 cd         1 FEG       0.712800
     36 N3A         -2.9860    -1.5610    -0.4650 nc         1 FEG      -0.699100
     37 N2A         -4.0130    -3.3210    -1.5270 nv         1 FEG      -0.944800
     38 H3M         -0.6020     1.3990    -2.6730 hc         1 FEG       0.023700
     39 H3MA         0.7580     2.4520    -2.4290 hc         1 FEG       0.023700
     40 H3MB         0.8110     1.2560    -3.7190 hc         1 FEG       0.023700
     41 H5M          3.5170     0.1490     1.9140 hc         1 FEG       0.041033
     42 H5MA         4.6340    -0.6510     0.8090 hc         1 FEG       0.041033
     43 H5MB         4.3120     1.0650     0.6490 hc         1 FEG       0.041033
     44 H7           3.0660    -2.3170     1.6010 hc         1 FEG       0.050700
     45 H7A          2.0760    -3.4160     0.6800 hc         1 FEG       0.050700
     46 H5S         -0.2780     3.4990     1.7020 h1         1 FEG       0.022200
     47 H5SA        -0.5420     5.0320     0.8760 h1         1 FEG       0.022200
     48 H4S         -1.8450     4.0000    -0.8730 h1         1 FEG       0.084700
     49 H3S         -2.7610     4.2590     1.7220 h1         1 FEG       0.044700
     50 HO3S        -4.7660     3.3090     0.7470 ho         1 FEG       0.405000
     51 H2S         -1.9970     2.0740     2.3760 h1         1 FEG       0.075700
     52 HO2S        -4.0970     1.8990     3.0130 ho         1 FEG       0.401000
     53 H8A         -0.0050     0.7400     1.9580 h5         1 FEG       0.109100
     54 HN1A        -2.2920    -4.7230    -0.4350 hn         1 FEG       0.306500
     55 HN2A        -3.9250    -4.2360    -1.9360 hn         1 FEG       0.424800
     56 HN2B        -4.5270    -2.6490    -2.0720 hn         1 FEG       0.424800
     57 H23         -3.2040     0.9200    -0.1730 h2         1 FEG       0.094700
     58 H25         -0.6090    -0.6380    -3.1190 ho         1 FEG       0.408000
@<TRIPOS>BOND
     1     1     2 ar  
     2     1     9 ar  
     3     2     3 1   
     4     2     4 ar  
     5     3    58 1   
     6     4     5 1   
     7     4     6 ar  
     8     5    38 1   
     9     5    39 1   
    10     5    40 1   
    11     6     7 ar  
    12     6    14 1   
    13     7     8 1   
    14     7     9 ar  
    15     8    41 1   
    16     8    42 1   
    17     8    43 1   
    18     9    10 1   
    19    10    11 1   
    20    10    44 1   
    21    10    45 1   
    22    11    12 1   
    23    11    13 1   
    24    14    15 1   
    25    15    16 1   
    26    15    17 1   
    27    15    18 1   
    28    18    19 1   
    29    19    20 1   
    30    19    46 1   
    31    19    47 1   
    32    20    21 1   
    33    20    26 1   
    34    20    48 1   
    35    21    22 1   
    36    21    23 1   
    37    21    49 1   
    38    22    50 1   
    39    23    24 1   
    40    23    25 1   
    41    23    51 1   
    42    24    52 1   
    43    25    26 1   
    44    25    27 1   
    45    25    57 1   
    46    27    28 1   
    47    27    31 1   
    48    28    29 2   
    49    28    53 1   
    50    29    30 1   
    51    30    31 2   
    52    30    32 1   
    53    31    36 1   
    54    32    33 2   
    55    32    34 1   
    56    34    35 1   
    57    34    54 1   
    58    35    36 2   
    59    35    37 1   
    60    37    55 1   
    61    37    56 1   
@<TRIPOS>SUBSTRUCTURE
     1 FEG         1 TEMP              0 ****  ****    0 ROOT
