@<TRIPOS>MOLECULE
FEG
   58    61     1     0     0
SMALL
No Charge or Current Charge


@<TRIPOS>ATOM
      1 N1           0.7330    -1.2340    -2.1640 nb         1 FEG      -0.734000
      2 C2           0.5670    -0.0480    -2.7370 ca         1 FEG       0.569300
      3 O2          -0.1630    -0.0720    -3.8730 oh         1 FEG      -0.680300
      4 C3           1.1130     1.1470    -2.2570 ca         1 FEG      -0.281300
      5 C3M          0.9010     2.4640    -3.0150 c3         1 FEG      -0.011800
      6 C4           1.8520     1.0860    -1.0590 ca         1 FEG       0.259100
      7 C5           2.0980    -0.1730    -0.4590 ca         1 FEG      -0.175300
      8 C5M          3.0210    -0.3150     0.7590 c3         1 FEG      -0.024800
      9 C6           1.4930    -1.3120    -1.0540 ca         1 FEG       0.484300
     10 C7           1.6150    -2.7210    -0.4920 c3         1 FEG      -0.277700
     11 C8           2.7490    -3.4220    -1.2230 c          1 FEG       0.728000
     12 O28          3.8810    -3.2940    -0.7890 o          1 FEG      -0.746000
     13 O18          2.4900    -4.0360    -2.2460 o          1 FEG      -0.746000
     14 O3P          2.4120     2.2440    -0.5830 os         1 FEG      -0.488500
     15 P1           2.1020     3.0070     0.8100 p5         1 FEG       1.421800
     16 O1P          1.5540     2.1220     1.8780 o          1 FEG      -0.818000
     17 O2P          3.3130     3.7410     1.2840 o          1 FEG      -0.818000
     18 O5S          0.9960     4.0730     0.3060 os         1 FEG      -0.591400
     19 C5S         -0.3760     4.0190     0.7460 c3         1 FEG       0.221600
     20 C4S         -1.2570     3.0860    -0.1430 c5         1 FEG       0.153300
     21 C3S         -2.7700     3.1380     0.2660 c5         1 FEG       0.098300
     22 O3S         -3.6580     2.7740    -0.8000 oh         1 FEG      -0.715000
     23 C2S         -2.7860     2.0600     1.3870 c5         1 FEG       0.071300
     24 O2S         -4.1290     1.6440     1.7130 oh         1 FEG      -0.706000
     25 C1S         -1.9260     0.9660     0.6760 c5         1 FEG       0.323300
     26 O4S         -0.8730     1.6920     0.0080 os         1 FEG      -0.416000
     27 N9A         -1.3460    -0.0930     1.4960 na         1 FEG      -0.186500
     28 C8A         -0.6490     0.0710     2.6780 cc         1 FEG       0.423400
     29 N7A         -0.2930    -1.1020     3.2000 nd         1 FEG      -0.586000
     30 C5A         -0.7960    -2.0570     2.3250 cd         1 FEG       0.130500
     31 C4A         -1.4560    -1.4420     1.2880 cc         1 FEG       0.127400
     32 C6A         -0.7400    -3.5480     2.3650 c          1 FEG       0.531500
     33 O6A         -0.1890    -4.2210     3.2260 o          1 FEG      -0.513000
     34 N1A         -1.3950    -4.1180     1.3100 ns         1 FEG      -0.449400
     35 C2A         -2.0250    -3.4030     0.3540 cd         1 FEG       0.712800
     36 N3A         -2.1100    -2.0990     0.2640 nc         1 FEG      -0.699100
     37 N2A         -2.6300    -4.0810    -0.6060 nv         1 FEG      -1.055200
     38 H3M         -0.1560     2.6100    -3.2700 hc         1 FEG       0.023700
     39 H3MA         1.2090     3.3450    -2.4430 hc         1 FEG       0.023700
     40 H3MB         1.4730     2.4690    -3.9510 hc         1 FEG       0.023700
     41 H5M          2.4410    -0.4400     1.6800 hc         1 FEG       0.041033
     42 H5MA         3.6860    -1.1780     0.6700 hc         1 FEG       0.041033
     43 H5MB         3.6830     0.5480     0.8870 hc         1 FEG       0.041033
     44 H7           1.8310    -2.6480     0.5770 hc         1 FEG       0.050700
     45 H7A          0.6700    -3.2380    -0.6900 hc         1 FEG       0.050700
     46 H5S         -0.4420     3.7020     1.7940 h1         1 FEG       0.022200
     47 H5SA        -0.8030     5.0290     0.6980 h1         1 FEG       0.022200
     48 H4S         -1.1250     3.3900    -1.1890 h1         1 FEG       0.084700
     49 H3S         -3.0450     4.1270     0.6610 h1         1 FEG       0.044700
     50 HO3S        -4.3900     2.2790    -0.3560 ho         1 FEG       0.504000
     51 H2S         -2.2690     2.4230     2.2870 h1         1 FEG       0.075700
     52 HO2S        -4.4630     2.2360     2.4290 ho         1 FEG       0.500000
     53 H8A         -0.4370     1.0480     3.0960 h5         1 FEG       0.109100
     54 HN1A        -1.4170    -5.1240     1.2830 hn         1 FEG       0.306500
     55 HN2A        -2.2540    -4.9930    -0.8320 hn         1 FEG       0.480000
     56 HN2B        -2.9080    -3.5140    -1.3960 hn         1 FEG       0.480000
     57 H23         -2.5410     0.4620    -0.0810 h2         1 FEG       0.094700
     58 H25         -0.1940     0.8530    -4.1820 ho         1 FEG       0.447000
@<TRIPOS>BOND
     1     1     2 ar  
     2     1     9 ar  
     3     2     3 1   
     4     2     4 ar  
     5     3    58 1   
     6     4     5 1   
     7     4     6 ar  
     8     5    38 1   
     9     5    39 1   
    10     5    40 1   
    11     6     7 ar  
    12     6    14 1   
    13     7     8 1   
    14     7     9 ar  
    15     8    41 1   
    16     8    42 1   
    17     8    43 1   
    18     9    10 1   
    19    10    11 1   
    20    10    44 1   
    21    10    45 1   
    22    11    12 1   
    23    11    13 1   
    24    14    15 1   
    25    15    16 1   
    26    15    17 1   
    27    15    18 1   
    28    18    19 1   
    29    19    20 1   
    30    19    46 1   
    31    19    47 1   
    32    20    21 1   
    33    20    26 1   
    34    20    48 1   
    35    21    22 1   
    36    21    23 1   
    37    21    49 1   
    38    22    50 1   
    39    23    24 1   
    40    23    25 1   
    41    23    51 1   
    42    24    52 1   
    43    25    26 1   
    44    25    27 1   
    45    25    57 1   
    46    27    28 1   
    47    27    31 1   
    48    28    29 2   
    49    28    53 1   
    50    29    30 1   
    51    30    31 2   
    52    30    32 1   
    53    31    36 1   
    54    32    33 2   
    55    32    34 1   
    56    34    35 1   
    57    34    54 1   
    58    35    36 2   
    59    35    37 1   
    60    37    55 1   
    61    37    56 1   
@<TRIPOS>SUBSTRUCTURE
     1 FEG         1 TEMP              0 ****  ****    0 ROOT
