@<TRIPOS>MOLECULE
FEH
   20    20     1     0     0
SMALL
No Charge or Current Charge


@<TRIPOS>ATOM
      1 C4           0.9390    -0.9350     0.5270 ca         1 FEH      -0.100000
      2 C5           2.3300    -0.9500     0.7310 ca         1 FEH      -0.109500
      3 C6           3.1300     0.0760     0.2010 ca         1 FEH      -0.107000
      4 C7           2.5370     1.1160    -0.5340 ca         1 FEH      -0.109500
      5 C8           1.1460     1.1320    -0.7380 ca         1 FEH      -0.100000
      6 C2           0.3350     0.1070    -0.2080 ca         1 FEH      -0.118300
      7 C1          -1.1790     0.1360    -0.4300 c3         1 FEH       0.217600
      8 O1          -1.5950    -1.0310    -1.1530 oh         1 FEH      -0.636000
      9 C3          -1.9800     0.2180     0.8990 c3         1 FEH       0.125600
     10 O2          -3.3960     0.1970     0.6340 oh         1 FEH      -0.650000
     11 H1           0.3320    -1.7390     0.9370 ha         1 FEH       0.112000
     12 H2           2.7880    -1.7570     1.2980 ha         1 FEH       0.113000
     13 H3           4.2060     0.0650     0.3590 ha         1 FEH       0.113000
     14 H4           3.1560     1.9110    -0.9450 ha         1 FEH       0.113000
     15 H5           0.7010     1.9440    -1.3090 ha         1 FEH       0.112000
     16 H6          -1.4280     1.0370    -1.0110 h1         1 FEH       0.089700
     17 H7          -2.5620    -1.0890    -0.9860 ho         1 FEH       0.440000
     18 H8          -1.7050    -0.6240     1.5490 h1         1 FEH       0.025200
     19 H9          -1.7050     1.1440     1.4220 h1         1 FEH       0.025200
     20 H10         -3.8540     0.3040     1.4990 ho         1 FEH       0.444000
@<TRIPOS>BOND
     1     1     2 ar  
     2     1     6 ar  
     3     1    11 1   
     4     2     3 ar  
     5     2    12 1   
     6     3     4 ar  
     7     3    13 1   
     8     4     5 ar  
     9     4    14 1   
    10     5     6 ar  
    11     5    15 1   
    12     6     7 1   
    13     7     8 1   
    14     7     9 1   
    15     7    16 1   
    16     8    17 1   
    17     9    10 1   
    18     9    18 1   
    19     9    19 1   
    20    10    20 1   
@<TRIPOS>SUBSTRUCTURE
     1 FEH         1 TEMP              0 ****  ****    0 ROOT
