@<TRIPOS>MOLECULE
FEH
   20    20     1     0     0
SMALL
abcg2


@<TRIPOS>ATOM
      1 C4           0.9800    -1.1660     0.1820 ca         1 FEH      -0.100000
      2 C5           2.3410    -1.0910     0.4540 ca         1 FEH      -0.109500
      3 C6           3.0210     0.1090     0.3050 ca         1 FEH      -0.107000
      4 C7           2.3310     1.2370    -0.1220 ca         1 FEH      -0.109500
      5 C8           0.9730     1.1590    -0.3910 ca         1 FEH      -0.100000
      6 C2           0.2800    -0.0400    -0.2380 ca         1 FEH      -0.118300
      7 C1          -1.2120    -0.0780    -0.5060 c3         1 FEH       0.217600
      8 O1          -1.6860    -1.3630    -0.8210 oh         1 FEH      -0.636000
      9 C3          -1.9490     0.5330     0.6800 c3         1 FEH       0.125600
     10 O2          -3.3210     0.6090     0.3780 oh         1 FEH      -0.650000
     11 H1           0.4760    -2.1170     0.2970 ha         1 FEH       0.112000
     12 H2           2.8700    -1.9770     0.7800 ha         1 FEH       0.113000
     13 H3           4.0820     0.1650     0.5120 ha         1 FEH       0.113000
     14 H4           2.8520     2.1770    -0.2510 ha         1 FEH       0.113000
     15 H5           0.4450     2.0440    -0.7320 ha         1 FEH       0.112000
     16 H6          -1.4140     0.5420    -1.3870 h1         1 FEH       0.089700
     17 H7          -1.8180    -1.8610    -0.0070 ho         1 FEH       0.440000
     18 H8          -1.7580    -0.0860     1.5690 h1         1 FEH       0.025200
     19 H9          -1.5200     1.5210     0.8870 h1         1 FEH       0.025200
     20 H10         -3.7780     0.9460     1.1540 ho         1 FEH       0.444000
@<TRIPOS>BOND
     1     1     2 ar  
     2     1     6 ar  
     3     1    11 1   
     4     2     3 ar  
     5     2    12 1   
     6     3     4 ar  
     7     3    13 1   
     8     4     5 ar  
     9     4    14 1   
    10     5     6 ar  
    11     5    15 1   
    12     6     7 1   
    13     7     8 1   
    14     7     9 1   
    15     7    16 1   
    16     8    17 1   
    17     9    10 1   
    18     9    18 1   
    19     9    19 1   
    20    10    20 1   
@<TRIPOS>SUBSTRUCTURE
     1 FEH         1 TEMP              0 ****  ****    0 ROOT
