@<TRIPOS>MOLECULE
FEI
   99   102     1     0     0
SMALL
No Charge or Current Charge


@<TRIPOS>ATOM
      1 C13        139.4150   137.7540   141.2850 c3         1 FEI      -0.386400
      2 C20        146.2210   144.7470   142.6680 cc         1 FEI      -0.128300
      3 C21        146.8250   145.2750   143.8440 cc         1 FEI      -0.098300
      4 C22        146.0100   145.0140   144.9210 cd         1 FEI      -0.173800
      5 C24        146.2760   145.3410   146.3290 cf         1 FEI      -0.123200
      6 C26        145.9050   145.3040   148.8450 cc         1 FEI      -0.015000
      7 C28        144.3200   143.5760   148.7810 c          1 FEI       0.556200
      8 C01        143.8150   138.9910   139.8910 c3         1 FEI      -0.033800
      9 C02        144.3100   140.1820   140.6760 cc         1 FEI      -0.079300
     10 C03        145.5690   140.3850   141.1900 cd         1 FEI      -0.147800
     11 N04        145.5270   141.6310   141.8170 na         1 FEI      -0.101000
     12 C05        144.2730   142.2130   141.6630 cd         1 FEI      -0.170300
     13 C06        143.5080   141.3170   140.9680 cc         1 FEI      -0.132300
     14 C07        142.0700   141.4870   140.5380 c3         1 FEI       0.006900
     15 C08        141.0730   140.9270   141.5740 c3         1 FEI      -0.159400
     16 C09        139.6200   141.1530   141.1200 c          1 FEI       0.606100
     17 O10        139.0740   142.2370   141.2520 o          1 FEI      -0.645100
     18 N11        138.8970   140.0950   140.6160 ns         1 FEI      -0.491900
     19 C12        139.4200   138.8070   140.1660 c3         1 FEI       0.151000
     20 S14        137.8140   136.9600   141.5210 s6         1 FEI       1.323600
     21 O15        138.0650   136.0130   142.6160 o          1 FEI      -0.698867
     22 O16        137.5420   136.3280   140.2220 o          1 FEI      -0.698867
     23 O17        136.9080   138.0640   141.8670 o          1 FEI      -0.698867
     24 C19        145.0070   144.2120   143.0220 cd         1 FEI      -0.154300
     25 N23        144.8860   144.3640   144.4030 na         1 FEI      -0.114000
     26 C25        145.7120   144.8660   147.4820 cc         1 FEI       0.015600
     27 C27        145.0580   144.5340   149.6230 cd         1 FEI      -0.177400
     28 N30        144.7830   143.8540   147.5360 ns         1 FEI      -0.425100
     29 C31        144.8510   144.5580   151.1190 c3         1 FEI      -0.027900
     30 C33        148.0900   146.5330   148.8900 c2         1 FEI      -0.297000
     31 C36        148.2430   144.1530   141.1920 c3         1 FEI      -0.160400
     32 C37        148.5660   143.5880   139.8060 c          1 FEI       0.603100
     33 O38        148.6920   144.2940   138.8150 o          1 FEI      -0.653100
     34 N39        148.7690   142.2300   139.7850 ns         1 FEI      -0.496900
     35 C40        149.1470   141.4390   138.6230 c3         1 FEI       0.143000
     36 C41        147.9080   140.8920   137.9050 c3         1 FEI      -0.378400
     37 S42        148.2590   139.3510   137.0510 s6         1 FEI       1.321600
     38 O43        149.3690   139.6900   136.1500 o          1 FEI      -0.700200
     39 O44        146.9940   139.0390   136.3730 o          1 FEI      -0.700200
     40 O45        148.6100   138.4300   138.1420 o          1 FEI      -0.700200
     41 C47        147.9850   139.5430   141.5830 cc         1 FEI      -0.015400
     42 C48        148.4950   140.0910   142.8180 cc         1 FEI      -0.029200
     43 C49        149.8420   139.7700   142.8820 cd         1 FEI      -0.174200
     44 C50        150.2150   138.9750   141.6850 c          1 FEI       0.563200
     45 O51        151.2920   138.5140   141.3390 o          1 FEI      -0.568000
     46 N52        149.0410   138.8770   141.0110 ns         1 FEI      -0.413100
     47 C53        150.7800   140.1510   143.9480 cf         1 FEI      -0.152000
     48 C54        151.8490   139.4110   144.3220 c2         1 FEI      -0.309000
     49 C55        147.6820   140.7980   143.8740 c3         1 FEI      -0.046900
     50 H132       139.7050   138.1900   142.2460 h1         1 FEI       0.074200
     51 H131       140.1070   136.9440   141.0340 h1         1 FEI       0.074200
     52 H241       146.9950   146.1410   146.4890 ha         1 FEI       0.196000
     53 H013       143.7980   139.2130   138.8180 hc         1 FEI       0.050700
     54 H011       144.4540   138.1130   140.0440 hc         1 FEI       0.050700
     55 H012       142.8030   138.7040   140.1960 hc         1 FEI       0.050700
     56 H041       146.3030   142.0750   142.2900 hn         1 FEI       0.338000
     57 H072       141.9030   141.0020   139.5680 hc         1 FEI       0.056200
     58 H071       141.8590   142.5520   140.3780 hc         1 FEI       0.056200
     59 H082       141.2300   141.4610   142.5170 hc         1 FEI       0.062200
     60 H081       141.2900   139.8650   141.7180 hc         1 FEI       0.062200
     61 H111       137.9220   140.2920   140.4320 hn         1 FEI       0.330500
     62 H121       138.8270   138.4610   139.3090 h1         1 FEI       0.040200
     63 H122       140.4460   138.9500   139.8030 h1         1 FEI       0.040200
     64 H181       143.7220   144.2490   141.3080 hc         1 FEI       0.068200
     65 H182       142.9840   143.5470   142.7260 hc         1 FEI       0.068200
     66 H231       144.0680   144.0970   144.9370 hn         1 FEI       0.343000
     67 H301       144.4940   143.2910   146.7490 hn         1 FEI       0.340500
     68 H312       145.7460   144.9190   151.6390 hc         1 FEI       0.046367
     69 H313       144.0180   145.2190   151.3870 hc         1 FEI       0.046367
     70 H311       144.6260   143.5580   151.5090 hc         1 FEI       0.046367
     71 H321       146.4400   146.9320   150.1510 ha         1 FEI       0.174000
     72 H332       148.7240   147.3070   149.3250 ha         1 FEI       0.168000
     73 H331       148.5440   145.9190   148.1120 ha         1 FEI       0.168000
     74 H342       148.2920   146.5970   142.9570 hc         1 FEI       0.037367
     75 H341       148.2450   146.6710   144.7110 hc         1 FEI       0.037367
     76 H343       148.9830   145.2710   143.9190 hc         1 FEI       0.037367
     77 H352       146.8760   145.8230   140.9180 hc         1 FEI       0.058700
     78 H351       146.1700   144.2610   140.5800 hc         1 FEI       0.058700
     79 H361       148.3240   143.3570   141.9400 hc         1 FEI       0.060200
     80 H362       148.9900   144.9210   141.4190 hc         1 FEI       0.060200
     81 H391       148.6560   141.7430   140.6650 hn         1 FEI       0.356500
     82 H401       149.7780   140.6150   138.9830 h1         1 FEI       0.040200
     83 H402       149.7520   142.0420   137.9320 h1         1 FEI       0.040200
     84 H411       147.5460   141.6060   137.1590 h1         1 FEI       0.078200
     85 H412       147.1070   140.6670   138.6120 h1         1 FEI       0.078200
     86 H3         146.6710   138.8490   140.1600 ha         1 FEI       0.241000
     87 H521       149.0100   138.4320   140.0950 hn         1 FEI       0.349500
     88 H531       150.5420   141.0640   144.5010 ha         1 FEI       0.170000
     89 H542       152.4910   139.7310   145.1430 ha         1 FEI       0.165500
     90 H541       152.1010   138.4730   143.8280 ha         1 FEI       0.165500
     91 H552       148.1270   140.6570   144.8660 hc         1 FEI       0.048700
     92 H553       147.6310   141.8760   143.6890 hc         1 FEI       0.048700
     93 H551       146.6650   140.3950   143.9290 hc         1 FEI       0.048700
     94 C18        143.9250   143.5930   142.1640 c3         1 FEI       0.056200
     95 C34        148.1570   145.9890   143.8590 c3         1 FEI      -0.019800
     96 O29        143.5000   142.7240   149.0880 o          1 FEI      -0.530000
     97 C46        146.7380   139.5170   141.0210 cf         1 FEI      -0.092200
     98 C35        146.8310   144.7880   141.2780 c3         1 FEI       0.008900
     99 C32        146.8270   146.3320   149.3240 ce         1 FEI      -0.170000
@<TRIPOS>BOND
     1     1    19 1   
     2     1    20 1   
     3     1    50 1   
     4     1    51 1   
     5     2     3 1   
     6     2    24 2   
     7     2    98 1   
     8     3     4 2   
     9     3    95 1   
    10     4     5 1   
    11     4    25 1   
    12     5    26 2   
    13     5    52 1   
    14     6    26 1   
    15     6    27 2   
    16     6    99 1   
    17     7    27 1   
    18     7    28 1   
    19     7    96 2   
    20     8     9 1   
    21     8    53 1   
    22     8    54 1   
    23     8    55 1   
    24     9    10 2   
    25     9    13 1   
    26    10    11 1   
    27    10    97 1   
    28    11    12 1   
    29    11    56 1   
    30    12    13 2   
    31    12    94 1   
    32    13    14 1   
    33    14    15 1   
    34    14    57 1   
    35    14    58 1   
    36    15    16 1   
    37    15    59 1   
    38    15    60 1   
    39    16    17 2   
    40    16    18 1   
    41    18    19 1   
    42    18    61 1   
    43    19    62 1   
    44    19    63 1   
    45    20    21 1   
    46    20    22 1   
    47    20    23 1   
    48    24    25 1   
    49    24    94 1   
    50    25    66 1   
    51    26    28 1   
    52    27    29 1   
    53    28    67 1   
    54    29    68 1   
    55    29    69 1   
    56    29    70 1   
    57    30    72 1   
    58    30    73 1   
    59    30    99 2   
    60    31    32 1   
    61    31    79 1   
    62    31    80 1   
    63    31    98 1   
    64    32    33 2   
    65    32    34 1   
    66    34    35 1   
    67    34    81 1   
    68    35    36 1   
    69    35    82 1   
    70    35    83 1   
    71    36    37 1   
    72    36    84 1   
    73    36    85 1   
    74    37    38 1   
    75    37    39 1   
    76    37    40 1   
    77    41    42 1   
    78    41    46 1   
    79    41    97 2   
    80    42    43 2   
    81    42    49 1   
    82    43    44 1   
    83    43    47 1   
    84    44    45 2   
    85    44    46 1   
    86    46    87 1   
    87    47    48 2   
    88    47    88 1   
    89    48    89 1   
    90    48    90 1   
    91    49    91 1   
    92    49    92 1   
    93    49    93 1   
    94    64    94 1   
    95    65    94 1   
    96    71    99 1   
    97    74    95 1   
    98    75    95 1   
    99    76    95 1   
   100    77    98 1   
   101    78    98 1   
   102    86    97 1   
@<TRIPOS>SUBSTRUCTURE
     1 FEI         1 TEMP              0 ****  ****    0 ROOT
