@<TRIPOS>MOLECULE
FEI
   99   102     1     0     0
SMALL
abcg2


@<TRIPOS>ATOM
      1 C13        139.6420   137.8460   140.8860 c3         1 FEI      -0.386400
      2 C20        145.4200   145.0790   142.5390 cc         1 FEI      -0.128300
      3 C21        146.2990   145.7830   143.4000 cc         1 FEI      -0.098300
      4 C22        146.0940   145.2990   144.6840 cd         1 FEI      -0.173800
      5 C24        146.8000   145.6380   145.8880 cf         1 FEI      -0.123200
      6 C26        147.7000   145.1960   148.2060 cc         1 FEI      -0.015000
      7 C28        147.0560   142.9960   148.2900 c          1 FEI       0.556200
      8 C01        145.0790   139.4970   139.6610 c3         1 FEI      -0.033800
      9 C02        145.0020   140.4290   140.8220 cc         1 FEI      -0.079300
     10 C03        145.8780   140.4820   141.8990 cd         1 FEI      -0.147800
     11 N04        145.4180   141.4580   142.7420 na         1 FEI      -0.101000
     12 C05        144.3010   142.0330   142.2400 cd         1 FEI      -0.170300
     13 C06        143.9970   141.4030   141.0480 cc         1 FEI      -0.132300
     14 C07        142.8060   141.6550   140.1810 c3         1 FEI       0.006900
     15 C08        141.7920   140.5180   140.3040 c3         1 FEI      -0.159400
     16 C09        140.5450   140.7160   139.4710 c          1 FEI       0.606100
     17 O10        140.1690   141.8340   139.1420 o          1 FEI      -0.645100
     18 N11        139.8430   139.6160   139.1270 ns         1 FEI      -0.491900
     19 C12        140.1140   138.2450   139.4930 c3         1 FEI       0.151000
     20 S14        137.8700   137.5050   140.9720 s6         1 FEI       1.323600
     21 O15        137.5900   137.2970   142.4050 o          1 FEI      -0.698867
     22 O16        137.6680   136.2910   140.1550 o          1 FEI      -0.698867
     23 O17        137.1950   138.6910   140.4080 o          1 FEI      -0.698867
     24 C19        144.6830   144.2160   143.3220 cd         1 FEI      -0.154300
     25 N23        145.1160   144.3380   144.6040 na         1 FEI      -0.114000
     26 C25        147.0560   144.8370   146.9430 cc         1 FEI       0.015600
     27 C27        147.6650   144.1180   149.0260 cd         1 FEI      -0.177400
     28 N30        146.6960   143.5000   147.0710 ns         1 FEI      -0.425100
     29 C31        148.1790   143.9580   150.4090 c3         1 FEI      -0.027900
     30 C33        149.0050   147.2580   147.7270 c2         1 FEI      -0.297000
     31 C36        146.5340   144.2590   140.4850 c3         1 FEI      -0.160400
     32 C37        146.5260   144.1150   138.9780 c          1 FEI       0.603100
     33 O38        146.0780   144.9770   138.2330 o          1 FEI      -0.653100
     34 N39        147.0650   142.9650   138.5400 ns         1 FEI      -0.496900
     35 C40        147.2700   142.6430   137.1470 c3         1 FEI       0.143000
     36 C41        147.2160   141.1430   136.9060 c3         1 FEI      -0.378400
     37 S42        148.5940   140.2330   137.6390 s6         1 FEI       1.321600
     38 O43        149.8020   140.7260   136.9550 o          1 FEI      -0.700200
     39 O44        148.3060   138.8110   137.3890 o          1 FEI      -0.700200
     40 O45        148.5770   140.5790   139.0850 o          1 FEI      -0.700200
     41 C47        147.6850   139.3900   143.2730 cc         1 FEI      -0.015400
     42 C48        147.2310   139.3540   144.6560 cc         1 FEI      -0.029200
     43 C49        148.2650   138.9230   145.4320 cd         1 FEI      -0.174200
     44 C50        149.4270   138.6500   144.5570 c          1 FEI       0.563200
     45 O51        150.5490   138.2760   144.8570 o          1 FEI      -0.568000
     46 N52        148.9880   138.8960   143.2920 ns         1 FEI      -0.413100
     47 C53        148.2350   138.7360   146.8680 cf         1 FEI      -0.152000
     48 C54        149.2200   138.2780   147.6460 c2         1 FEI      -0.309000
     49 C55        145.8380   139.6000   145.1290 c3         1 FEI      -0.046900
     50 H132       139.8780   138.6230   141.6150 h1         1 FEI       0.074200
     51 H131       140.1510   136.9330   141.2020 h1         1 FEI       0.074200
     52 H241       147.1960   146.6430   145.9340 ha         1 FEI       0.196000
     53 H013       144.6540   139.9540   138.7670 hc         1 FEI       0.050700
     54 H011       146.1070   139.2200   139.4260 hc         1 FEI       0.050700
     55 H012       144.5260   138.5710   139.8390 hc         1 FEI       0.050700
     56 H041       145.9400   141.8230   143.5240 hn         1 FEI       0.338000
     57 H072       143.1160   141.7500   139.1370 hc         1 FEI       0.056200
     58 H071       142.3400   142.6030   140.4490 hc         1 FEI       0.056200
     59 H082       141.4740   140.4280   141.3490 hc         1 FEI       0.062200
     60 H081       142.2800   139.5720   140.0680 hc         1 FEI       0.062200
     61 H111       138.9470   139.7940   138.6990 hn         1 FEI       0.330500
     62 H121       139.6460   137.6040   138.7450 h1         1 FEI       0.040200
     63 H122       141.1830   138.0500   139.4120 h1         1 FEI       0.040200
     64 H181       142.9270   143.6440   142.2520 hc         1 FEI       0.068200
     65 H182       143.1050   142.8710   143.8090 hc         1 FEI       0.068200
     66 H231       144.6220   143.9510   145.3940 hn         1 FEI       0.343000
     67 H301       146.3890   142.9150   146.3100 hn         1 FEI       0.340500
     68 H312       148.5080   144.9040   150.8330 hc         1 FEI       0.046367
     69 H313       147.4150   143.5390   151.0660 hc         1 FEI       0.046367
     70 H311       149.0290   143.2720   150.4350 hc         1 FEI       0.046367
     71 H321       148.1170   146.8330   149.5600 ha         1 FEI       0.174000
     72 H332       149.4110   148.1990   148.0720 ha         1 FEI       0.168000
     73 H331       149.2450   146.9680   146.7120 ha         1 FEI       0.168000
     74 H342       146.9260   147.4300   142.1850 hc         1 FEI       0.037367
     75 H341       147.5990   147.4490   143.8100 hc         1 FEI       0.037367
     76 H343       148.2260   146.3310   142.6110 hc         1 FEI       0.037367
     77 H352       145.5080   146.1510   140.6880 hc         1 FEI       0.058700
     78 H351       144.4420   144.7630   140.6710 hc         1 FEI       0.058700
     79 H361       146.5040   143.2720   140.9500 hc         1 FEI       0.060200
     80 H362       147.4980   144.6960   140.7690 hc         1 FEI       0.060200
     81 H391       147.4760   142.3240   139.2060 hn         1 FEI       0.356500
     82 H401       148.2210   143.0460   136.7830 h1         1 FEI       0.040200
     83 H402       146.4840   143.1150   136.5580 h1         1 FEI       0.040200
     84 H411       147.2470   140.9460   135.8340 h1         1 FEI       0.078200
     85 H412       146.2880   140.7230   137.2980 h1         1 FEI       0.078200
     86 H3         147.6200   139.4860   141.2010 ha         1 FEI       0.241000
     87 H521       149.5950   138.8960   142.4870 hn         1 FEI       0.349500
     88 H531       147.3050   139.0150   147.3510 ha         1 FEI       0.170000
     89 H542       149.0700   138.1950   148.7140 ha         1 FEI       0.165500
     90 H541       150.1850   137.9820   147.2630 ha         1 FEI       0.165500
     91 H552       145.6080   138.9690   145.9860 hc         1 FEI       0.048700
     92 H553       145.6820   140.6320   145.4460 hc         1 FEI       0.048700
     93 H551       145.1050   139.3810   144.3550 hc         1 FEI       0.048700
     94 C18        143.6620   143.1990   142.9250 c3         1 FEI       0.056200
     95 C34        147.3110   146.7970   142.9850 c3         1 FEI      -0.019800
     96 O29        146.9110   141.8430   148.6610 o          1 FEI      -0.530000
     97 C46        147.0850   139.7420   142.1110 cf         1 FEI      -0.092200
     98 C35        145.4030   145.1240   141.0450 c3         1 FEI       0.008900
     99 C32        148.2730   146.4970   148.5400 ce         1 FEI      -0.170000
@<TRIPOS>BOND
     1     1    19 1   
     2     1    20 1   
     3     1    50 1   
     4     1    51 1   
     5     2     3 1   
     6     2    24 2   
     7     2    98 1   
     8     3     4 2   
     9     3    95 1   
    10     4     5 1   
    11     4    25 1   
    12     5    26 2   
    13     5    52 1   
    14     6    26 1   
    15     6    27 2   
    16     6    99 1   
    17     7    27 1   
    18     7    28 1   
    19     7    96 2   
    20     8     9 1   
    21     8    53 1   
    22     8    54 1   
    23     8    55 1   
    24     9    10 2   
    25     9    13 1   
    26    10    11 1   
    27    10    97 1   
    28    11    12 1   
    29    11    56 1   
    30    12    13 2   
    31    12    94 1   
    32    13    14 1   
    33    14    15 1   
    34    14    57 1   
    35    14    58 1   
    36    15    16 1   
    37    15    59 1   
    38    15    60 1   
    39    16    17 2   
    40    16    18 1   
    41    18    19 1   
    42    18    61 1   
    43    19    62 1   
    44    19    63 1   
    45    20    21 1   
    46    20    22 1   
    47    20    23 1   
    48    24    25 1   
    49    24    94 1   
    50    25    66 1   
    51    26    28 1   
    52    27    29 1   
    53    28    67 1   
    54    29    68 1   
    55    29    69 1   
    56    29    70 1   
    57    30    72 1   
    58    30    73 1   
    59    30    99 2   
    60    31    32 1   
    61    31    79 1   
    62    31    80 1   
    63    31    98 1   
    64    32    33 2   
    65    32    34 1   
    66    34    35 1   
    67    34    81 1   
    68    35    36 1   
    69    35    82 1   
    70    35    83 1   
    71    36    37 1   
    72    36    84 1   
    73    36    85 1   
    74    37    38 1   
    75    37    39 1   
    76    37    40 1   
    77    41    42 1   
    78    41    46 1   
    79    41    97 2   
    80    42    43 2   
    81    42    49 1   
    82    43    44 1   
    83    43    47 1   
    84    44    45 2   
    85    44    46 1   
    86    46    87 1   
    87    47    48 2   
    88    47    88 1   
    89    48    89 1   
    90    48    90 1   
    91    49    91 1   
    92    49    92 1   
    93    49    93 1   
    94    64    94 1   
    95    65    94 1   
    96    71    99 1   
    97    74    95 1   
    98    75    95 1   
    99    76    95 1   
   100    77    98 1   
   101    78    98 1   
   102    86    97 1   
@<TRIPOS>SUBSTRUCTURE
     1 FEI         1 TEMP              0 ****  ****    0 ROOT
