@<TRIPOS>MOLECULE
FEK
   23    23     1     0     0
SMALL
No Charge or Current Charge


@<TRIPOS>ATOM
      1 OAF         -0.3850     1.9600    -1.1020 oh         1 FEK      -0.656000
      2 CAC         -0.4920     1.3010     0.1650 c6         1 FEK       0.220500
      3 CAD          0.9310     0.8970     0.6550 c6         1 FEK       0.114300
      4 OAG          1.8360     2.0210     0.5510 oh         1 FEK      -0.657000
      5 CAE          1.4410    -0.3290    -0.1520 c6         1 FEK       0.165300
      6 FAH          2.7410    -0.6600     0.3040 f          1 FEK      -0.266000
      7 CAA          0.5070    -1.5590     0.0470 c6         1 FEK       0.179500
      8 CAB         -0.9640    -1.1730    -0.0370 c2         1 FEK      -0.216200
      9 CAI         -1.4240     0.0950     0.0320 c2         1 FEK      -0.114400
     10 CAJ         -2.9020     0.4350    -0.0040 c3         1 FEK       0.204800
     11 OAK         -3.4980     0.1300     1.2620 oh         1 FEK      -0.661000
     12 H1           0.4320     2.5030    -1.0150 ho         1 FEK       0.461000
     13 H2          -0.9170     1.9950     0.9070 h1         1 FEK       0.044700
     14 H3           0.8460     0.5920     1.7090 h1         1 FEK       0.044700
     15 H4           2.7180     1.7010     0.8510 ho         1 FEK       0.462000
     16 H5           1.5080    -0.0780    -1.2200 h1         1 FEK       0.100700
     17 H6           0.6910    -1.9580     1.0560 h1         1 FEK       0.047700
     18 H8          -1.6690    -2.0010    -0.1200 ha         1 FEK       0.201000
     19 H9          -3.0410     1.4990    -0.2420 h1         1 FEK       0.033200
     20 H10         -3.3870    -0.1430    -0.8020 h1         1 FEK       0.033200
     21 H11         -4.4530     0.3490     1.1860 ho         1 FEK       0.449000
     22 O1           0.7780    -2.5720    -0.9310 oh         1 FEK      -0.639000
     23 H7           0.3170    -3.3860    -0.6330 ho         1 FEK       0.449000
@<TRIPOS>BOND
     1     1     2 1   
     2     1    12 1   
     3     2     3 1   
     4     2     9 1   
     5     2    13 1   
     6     3     4 1   
     7     3     5 1   
     8     3    14 1   
     9     4    15 1   
    10     5     6 1   
    11     5     7 1   
    12     5    16 1   
    13     7     8 1   
    14     7    17 1   
    15     7    22 1   
    16     8     9 2   
    17     8    18 1   
    18     9    10 1   
    19    10    11 1   
    20    10    19 1   
    21    10    20 1   
    22    11    21 1   
    23    22    23 1   
@<TRIPOS>SUBSTRUCTURE
     1 FEK         1 TEMP              0 ****  ****    0 ROOT
