@<TRIPOS>MOLECULE
FEK
   23    23     1     0     0
SMALL
bcc


@<TRIPOS>ATOM
      1 OAF         -0.4130     1.8270    -1.2080 oh         1 FEK      -0.593800
      2 CAC         -0.4000     1.3250     0.1200 c6         1 FEK       0.197300
      3 CAD          1.0040     0.8740     0.5180 c6         1 FEK       0.091100
      4 OAG          1.8940     1.9240     0.2270 oh         1 FEK      -0.594800
      5 CAE          1.3510    -0.3980    -0.2310 c6         1 FEK       0.146600
      6 FAH          2.6880    -0.7290    -0.0050 f          1 FEK      -0.247300
      7 CAA          0.4770    -1.5260     0.2670 c6         1 FEK       0.156300
      8 CAB         -0.9610    -1.0960     0.2410 c2         1 FEK      -0.166200
      9 CAI         -1.3720     0.1700     0.2000 c2         1 FEK      -0.114400
     10 CAJ         -2.8180     0.5560     0.1780 c3         1 FEK       0.181600
     11 OAK         -3.6420    -0.5800     0.2490 oh         1 FEK      -0.598800
     12 H1           0.0650     2.6580    -1.2470 ho         1 FEK       0.422000
     13 H2          -0.6970     2.1060     0.8250 h1         1 FEK       0.044700
     14 H3           0.9790     0.6550     1.5930 h1         1 FEK       0.044700
     15 H4           2.7410     1.7210     0.6340 ho         1 FEK       0.423000
     16 H5           1.2310    -0.2690    -1.3130 h1         1 FEK       0.100700
     17 H6           0.7630    -1.7270     1.3120 h1         1 FEK       0.047700
     18 H8          -1.6850    -1.9030     0.2870 ha         1 FEK       0.151000
     19 H9          -3.0020     1.2460     1.0150 h1         1 FEK       0.033200
     20 H10         -3.0060     1.1310    -0.7340 h1         1 FEK       0.033200
     21 H11         -4.5550    -0.2810     0.2220 ho         1 FEK       0.410000
     22 O1           0.7010    -2.6540    -0.5440 oh         1 FEK      -0.576800
     23 H7           0.2720    -3.4130    -0.1380 ho         1 FEK       0.410000
@<TRIPOS>BOND
     1     1     2 1   
     2     1    12 1   
     3     2     3 1   
     4     2     9 1   
     5     2    13 1   
     6     3     4 1   
     7     3     5 1   
     8     3    14 1   
     9     4    15 1   
    10     5     6 1   
    11     5     7 1   
    12     5    16 1   
    13     7     8 1   
    14     7    17 1   
    15     7    22 1   
    16     8     9 2   
    17     8    18 1   
    18     9    10 1   
    19    10    11 1   
    20    10    19 1   
    21    10    20 1   
    22    11    21 1   
    23    22    23 1   
@<TRIPOS>SUBSTRUCTURE
     1 FEK         1 TEMP              0 ****  ****    0 ROOT
