@<TRIPOS>MOLECULE
FEN
   62    63     1     0     0
SMALL
No Charge or Current Charge


@<TRIPOS>ATOM
      1 C1          29.5140    21.1140    45.0940 c6         1 FEN       0.000200
      2 C2          29.8710    21.7410    43.7150 c6         1 FEN      -0.068400
      3 C3          30.2410    20.6690    42.6750 c6         1 FEN      -0.071400
      4 C4          31.5010    19.9000    43.1200 c6         1 FEN      -0.041200
      5 C5          31.4980    19.4790    44.5940 c2         1 FEN      -0.092400
      6 C6          30.6550    20.0750    45.5110 ce         1 FEN      -0.086200
      7 C7          30.6370    19.7230    46.9440 ce         1 FEN      -0.144000
      8 C8          31.7360    19.5540    47.7370 cf         1 FEN      -0.199000
      9 C9          31.7580    19.2380    49.1670 cf         1 FEN      -0.038200
     10 C10         32.9200    19.3700    49.8740 ce         1 FEN      -0.202000
     11 C11         33.1290    19.1010    51.3060 ce         1 FEN      -0.134000
     12 C12         34.3440    19.1900    51.9210 cf         1 FEN      -0.216000
     13 C13         34.6520    18.9390    53.3320 cf         1 FEN       0.032800
     14 C14         35.9510    18.7110    53.6990 ce         1 FEN      -0.318200
     15 C15         36.5080    18.4240    55.0600 c          1 FEN       0.621300
     16 C16         28.0850    20.4290    45.0120 c3         1 FEN      -0.081100
     17 C17         29.3550    22.3110    46.1230 c3         1 FEN      -0.081100
     18 C18         32.5660    18.3860    44.8620 c3         1 FEN      -0.058900
     19 C19         30.4730    18.7000    49.7910 c3         1 FEN      -0.061900
     20 C20         33.4980    19.0150    54.3280 c3         1 FEN      -0.076900
     21 C21         38.8350    18.0090    56.0870 ca         1 FEN      -0.051000
     22 C22         40.1840    17.8640    55.7100 ca         1 FEN      -0.112000
     23 C23         41.1740    17.6000    56.6740 ca         1 FEN      -0.148000
     24 C24         40.8240    17.4790    58.0250 ca         1 FEN       0.111100
     25 C25         39.4830    17.6230    58.4160 ca         1 FEN      -0.148000
     26 C26         38.4910    17.8880    57.4530 ca         1 FEN      -0.112000
     27 O           35.8130    18.3180    56.0630 o          1 FEN      -0.596100
     28 N           37.8900    18.2770    55.0560 ns         1 FEN      -0.144000
     29 O4          41.7900    17.2230    58.9530 oh         1 FEN      -0.536100
     30 H21         29.0330    22.3460    43.3410 hc         1 FEN       0.042200
     31 H22         30.7180    22.4320    43.8280 hc         1 FEN       0.042200
     32 H31         29.4080    19.9700    42.5250 hc         1 FEN       0.042200
     33 H32         30.4240    21.1400    41.6990 hc         1 FEN       0.042200
     34 H41         31.6160    19.0210    42.4710 hc         1 FEN       0.045700
     35 H42         32.3860    20.5260    42.9400 hc         1 FEN       0.045700
     36 H7          29.6490    19.6580    47.4000 ha         1 FEN       0.173000
     37 H8          32.7100    19.7060    47.2700 ha         1 FEN       0.176000
     38 H10         33.7980    19.7310    49.3360 ha         1 FEN       0.173000
     39 H11         32.2580    18.8100    51.8920 ha         1 FEN       0.176000
     40 H12         35.1960    19.4530    51.2920 ha         1 FEN       0.173000
     41 H14         36.6990    18.7160    52.9080 ha         1 FEN       0.171000
     42 H161        27.7460    20.0900    45.9980 hc         1 FEN       0.034367
     43 H162        27.3260    21.1210    44.6260 hc         1 FEN       0.034367
     44 H163        28.0950    19.5490    44.3600 hc         1 FEN       0.034367
     45 H171        29.0130    21.9660    47.1050 hc         1 FEN       0.034367
     46 H172        30.3100    22.8300    46.2720 hc         1 FEN       0.034367
     47 H173        28.6280    23.0520    45.7680 hc         1 FEN       0.034367
     48 H181        32.3550    17.8230    45.7780 hc         1 FEN       0.042367
     49 H182        32.6030    17.6490    44.0510 hc         1 FEN       0.042367
     50 H183        33.5650    18.8270    44.9570 hc         1 FEN       0.042367
     51 H191        30.6720    17.9860    50.5980 hc         1 FEN       0.045033
     52 H192        29.8650    19.5130    50.2040 hc         1 FEN       0.045033
     53 H193        29.8600    18.1550    49.0650 hc         1 FEN       0.045033
     54 H201        33.7840    19.5510    55.2390 hc         1 FEN       0.059033
     55 H202        32.6360    19.5630    53.9340 hc         1 FEN       0.059033
     56 H203        33.1580    18.0130    54.6160 hc         1 FEN       0.059033
     57 H2          40.4710    17.9560    54.6640 ha         1 FEN       0.129000
     58 H3          42.2120    17.4890    56.3690 ha         1 FEN       0.120500
     59 H5          39.2020    17.5330    59.4620 ha         1 FEN       0.120500
     60 H6          37.4660    17.9970    57.7920 ha         1 FEN       0.129000
     61 HN          38.3090    18.3840    54.1420 hn         1 FEN       0.147000
     62 HO4         41.3680    17.1710    59.8380 ho         1 FEN       0.463000
@<TRIPOS>BOND
     1     1     2 1   
     2     1     6 1   
     3     1    16 1   
     4     1    17 1   
     5     2     3 1   
     6     2    30 1   
     7     2    31 1   
     8     3     4 1   
     9     3    32 1   
    10     3    33 1   
    11     4     5 1   
    12     4    34 1   
    13     4    35 1   
    14     5     6 2   
    15     5    18 1   
    16     6     7 1   
    17     7     8 2   
    18     7    36 1   
    19     8     9 1   
    20     8    37 1   
    21     9    10 2   
    22     9    19 1   
    23    10    11 1   
    24    10    38 1   
    25    11    12 2   
    26    11    39 1   
    27    12    13 1   
    28    12    40 1   
    29    13    14 2   
    30    13    20 1   
    31    14    15 1   
    32    14    41 1   
    33    15    27 2   
    34    15    28 1   
    35    16    42 1   
    36    16    43 1   
    37    16    44 1   
    38    17    45 1   
    39    17    46 1   
    40    17    47 1   
    41    18    48 1   
    42    18    49 1   
    43    18    50 1   
    44    19    51 1   
    45    19    52 1   
    46    19    53 1   
    47    20    54 1   
    48    20    55 1   
    49    20    56 1   
    50    21    22 ar  
    51    21    26 ar  
    52    21    28 1   
    53    22    23 ar  
    54    22    57 1   
    55    23    24 ar  
    56    23    58 1   
    57    24    25 ar  
    58    24    29 1   
    59    25    26 ar  
    60    25    59 1   
    61    26    60 1   
    62    28    61 1   
    63    29    62 1   
@<TRIPOS>SUBSTRUCTURE
     1 FEN         1 TEMP              0 ****  ****    0 ROOT
