@<TRIPOS>MOLECULE
FEN
   62    63     1     0     0
SMALL
bcc


@<TRIPOS>ATOM
      1 C1          29.7310    21.2140    45.2230 c6         1 FEN       0.000200
      2 C2          30.0400    21.7740    43.8310 c6         1 FEN      -0.068400
      3 C3          30.1980    20.6800    42.7930 c6         1 FEN      -0.071400
      4 C4          31.3590    19.7790    43.1730 c6         1 FEN      -0.041200
      5 C5          31.3920    19.4010    44.6310 c2         1 FEN      -0.092400
      6 C6          30.6720    20.0550    45.5610 ce         1 FEN      -0.086200
      7 C7          30.6790    19.6940    46.9850 ce         1 FEN      -0.094000
      8 C8          31.7650    19.5320    47.7560 cf         1 FEN      -0.149000
      9 C9          31.7470    19.2240    49.1770 cf         1 FEN      -0.038200
     10 C10         32.9360    19.1150    49.8200 ce         1 FEN      -0.152000
     11 C11         33.1380    18.8470    51.2170 ce         1 FEN      -0.084000
     12 C12         34.3630    18.7510    51.7740 cf         1 FEN      -0.166000
     13 C13         34.6290    18.5020    53.1810 cf         1 FEN       0.032800
     14 C14         35.9270    18.4390    53.5540 ce         1 FEN      -0.268200
     15 C15         36.4790    18.2010    54.9000 c          1 FEN       0.688300
     16 C16         28.2760    20.7270    45.2800 c3         1 FEN      -0.081100
     17 C17         29.9090    22.3510    46.2370 c3         1 FEN      -0.081100
     18 C18         32.2910    18.2310    44.9150 c3         1 FEN      -0.058900
     19 C19         30.4190    19.0490    49.8470 c3         1 FEN      -0.061900
     20 C20         33.4490    18.3430    54.0920 c3         1 FEN      -0.076900
     21 C21         38.7240    18.1710    55.9940 ca         1 FEN       0.041600
     22 C22         40.0770    18.3970    55.7250 ca         1 FEN      -0.130000
     23 C23         41.0380    18.2890    56.7120 ca         1 FEN      -0.166000
     24 C24         40.6690    17.9500    58.0120 ca         1 FEN       0.111100
     25 C25         39.3270    17.7210    58.2870 ca         1 FEN      -0.166000
     26 C26         38.3600    17.8280    57.2960 ca         1 FEN      -0.130000
     27 O           35.8220    17.9360    55.8980 o          1 FEN      -0.596100
     28 N           37.8370    18.3050    54.9200 ns         1 FEN      -0.470100
     29 O4          41.6400    17.8620    58.9460 oh         1 FEN      -0.497100
     30 H21         29.2470    22.4740    43.5480 hc         1 FEN       0.042200
     31 H22         30.9660    22.3580    43.8750 hc         1 FEN       0.042200
     32 H31         29.2790    20.0910    42.7240 hc         1 FEN       0.042200
     33 H32         30.3640    21.1100    41.8030 hc         1 FEN       0.042200
     34 H41         31.3410    18.8660    42.5710 hc         1 FEN       0.045700
     35 H42         32.3110    20.2650    42.9210 hc         1 FEN       0.045700
     36 H7          29.7000    19.6160    47.4510 ha         1 FEN       0.123000
     37 H8          32.7480    19.6640    47.3130 ha         1 FEN       0.126000
     38 H10         33.8390    19.2500    49.2300 ha         1 FEN       0.123000
     39 H11         32.2640    18.7300    51.8460 ha         1 FEN       0.126000
     40 H12         35.2330    18.8670    51.1320 ha         1 FEN       0.123000
     41 H14         36.6630    18.5840    52.7700 ha         1 FEN       0.121000
     42 H161        28.0200    20.3250    46.2620 hc         1 FEN       0.034367
     43 H162        27.5890    21.5530    45.0790 hc         1 FEN       0.034367
     44 H163        28.0810    19.9440    44.5450 hc         1 FEN       0.034367
     45 H171        29.6060    22.0620    47.2450 hc         1 FEN       0.034367
     46 H172        30.9500    22.6780    46.2850 hc         1 FEN       0.034367
     47 H173        29.3020    23.2110    45.9450 hc         1 FEN       0.034367
     48 H181        32.1590    17.8120    45.9090 hc         1 FEN       0.042367
     49 H182        32.1130    17.4390    44.1840 hc         1 FEN       0.042367
     50 H183        33.3420    18.5140    44.8110 hc         1 FEN       0.042367
     51 H191        30.5000    18.8690    50.9160 hc         1 FEN       0.045033
     52 H192        29.7910    19.9310    49.7110 hc         1 FEN       0.045033
     53 H193        29.8770    18.2060    49.4130 hc         1 FEN       0.045033
     54 H201        33.7320    18.2420    55.1310 hc         1 FEN       0.059033
     55 H202        32.7800    19.2000    53.9950 hc         1 FEN       0.059033
     56 H203        32.8710    17.4620    53.8070 hc         1 FEN       0.059033
     57 H2          40.3880    18.6640    54.7220 ha         1 FEN       0.147000
     58 H3          42.0780    18.4690    56.4730 ha         1 FEN       0.138500
     59 H5          39.0150    17.4540    59.2910 ha         1 FEN       0.138500
     60 H6          37.3320    17.6410    57.5550 ha         1 FEN       0.147000
     61 HN          38.2790    18.5410    54.0450 hn         1 FEN       0.313500
     62 HO4         41.2640    17.6150    59.7980 ho         1 FEN       0.424000
@<TRIPOS>BOND
     1     1     2 1   
     2     1     6 1   
     3     1    16 1   
     4     1    17 1   
     5     2     3 1   
     6     2    30 1   
     7     2    31 1   
     8     3     4 1   
     9     3    32 1   
    10     3    33 1   
    11     4     5 1   
    12     4    34 1   
    13     4    35 1   
    14     5     6 2   
    15     5    18 1   
    16     6     7 1   
    17     7     8 2   
    18     7    36 1   
    19     8     9 1   
    20     8    37 1   
    21     9    10 2   
    22     9    19 1   
    23    10    11 1   
    24    10    38 1   
    25    11    12 2   
    26    11    39 1   
    27    12    13 1   
    28    12    40 1   
    29    13    14 2   
    30    13    20 1   
    31    14    15 1   
    32    14    41 1   
    33    15    27 2   
    34    15    28 1   
    35    16    42 1   
    36    16    43 1   
    37    16    44 1   
    38    17    45 1   
    39    17    46 1   
    40    17    47 1   
    41    18    48 1   
    42    18    49 1   
    43    18    50 1   
    44    19    51 1   
    45    19    52 1   
    46    19    53 1   
    47    20    54 1   
    48    20    55 1   
    49    20    56 1   
    50    21    22 ar  
    51    21    26 ar  
    52    21    28 1   
    53    22    23 ar  
    54    22    57 1   
    55    23    24 ar  
    56    23    58 1   
    57    24    25 ar  
    58    24    29 1   
    59    25    26 ar  
    60    25    59 1   
    61    26    60 1   
    62    28    61 1   
    63    29    62 1   
@<TRIPOS>SUBSTRUCTURE
     1 FEN         1 TEMP              0 ****  ****    0 ROOT
