@<TRIPOS>MOLECULE
FEP
   46    47     1     0     0
SMALL
No Charge or Current Charge


@<TRIPOS>ATOM
      1 C1          -0.9400     0.1630     1.7290 c3         1 FEP      -0.015100
      2 C2           0.2230    -0.0270     0.7330 c3         1 FEP      -0.077400
      3 C3          -0.2230     0.0420    -0.7440 c3         1 FEP      -0.077400
      4 C4           0.9410    -0.1480    -1.7400 c3         1 FEP      -0.015100
      5 C5           0.8880    -0.1190     7.3300 c3         1 FEP      -0.055700
      6 C6          -0.4740     0.0910     3.1780 ca         1 FEP      -0.123300
      7 C7          -0.0630     1.2550     3.8520 ca         1 FEP      -0.133500
      8 C8           0.3720     1.1890     5.1870 ca         1 FEP      -0.078000
      9 C9           0.4080    -0.0450     5.8720 ca         1 FEP      -0.052300
     10 C10         -0.0120    -1.2090     5.1920 ca         1 FEP      -0.078000
     11 C11         -0.4460    -1.1410     3.8570 ca         1 FEP      -0.133500
     12 C12         -0.8870     0.1350    -7.3410 c3         1 FEP      -0.055700
     13 C13          0.4740    -0.0760    -3.1890 ca         1 FEP      -0.123300
     14 C14          0.4500     1.1560    -3.8680 ca         1 FEP      -0.133500
     15 C15          0.0160     1.2240    -5.2040 ca         1 FEP      -0.078000
     16 C16         -0.4070     0.0610    -5.8830 ca         1 FEP      -0.052300
     17 C17         -0.3750    -1.1730    -5.1970 ca         1 FEP      -0.078000
     18 C18          0.0600    -1.2390    -3.8620 ca         1 FEP      -0.133500
     19 F1           1.8370     0.8230     7.5750 f          1 FEP      -0.165000
     20 F2           1.4960    -1.3100     7.5790 f          1 FEP      -0.165000
     21 P1          -0.5190     0.1080     8.5890 p5         1 FEP       1.277000
     22 OP1          0.0280     0.0240     9.9790 o          1 FEP      -0.908167
     23 OP2         -1.5450    -0.9630     8.4030 o          1 FEP      -0.908167
     24 OP3         -1.1600     1.4460     8.3980 o          1 FEP      -0.908167
     25 F3          -1.8390    -0.8040    -7.5850 f          1 FEP      -0.165000
     26 F4          -1.4910     1.3280    -7.5910 f          1 FEP      -0.165000
     27 P2           0.5190    -0.0980    -8.5990 p5         1 FEP       1.277000
     28 OP4         -0.0270    -0.0120    -9.9890 o          1 FEP      -0.908167
     29 OP5          1.5490     0.9700    -8.4140 o          1 FEP      -0.908167
     30 OP6          1.1560    -1.4370    -8.4080 o          1 FEP      -0.908167
     31 HC11        -1.7030    -0.6030     1.5420 hc         1 FEP       0.027200
     32 HC12        -1.4240     1.1290     1.5380 hc         1 FEP       0.027200
     33 HC21         0.9820     0.7440     0.9180 hc         1 FEP       0.034700
     34 HC22         0.7010    -0.9970     0.9220 hc         1 FEP       0.034700
     35 HC31        -0.9810    -0.7290    -0.9290 hc         1 FEP       0.034700
     36 HC32        -0.7000     1.0120    -0.9320 hc         1 FEP       0.034700
     37 HC41         1.7030     0.6180    -1.5520 hc         1 FEP       0.027200
     38 HC42         1.4240    -1.1140    -1.5480 hc         1 FEP       0.027200
     39 HC7         -0.0790     2.2150     3.3410 ha         1 FEP       0.076500
     40 HC8          0.6800     2.1030     5.6900 ha         1 FEP       0.124000
     41 H10         -0.0040    -2.1710     5.6980 ha         1 FEP       0.124000
     42 H11         -0.7610    -2.0490     3.3490 ha         1 FEP       0.076500
     43 H14          0.7680     2.0640    -3.3620 ha         1 FEP       0.076500
     44 H15          0.0110     2.1860    -5.7100 ha         1 FEP       0.124000
     45 H17         -0.6860    -2.0860    -5.6990 ha         1 FEP       0.124000
     46 H18          0.0730    -2.1980    -3.3500 ha         1 FEP       0.076500
@<TRIPOS>BOND
     1     1     2 1   
     2     1     6 1   
     3     1    31 1   
     4     1    32 1   
     5     2     3 1   
     6     2    33 1   
     7     2    34 1   
     8     3     4 1   
     9     3    35 1   
    10     3    36 1   
    11     4    13 1   
    12     4    37 1   
    13     4    38 1   
    14     5     9 1   
    15     5    19 1   
    16     5    20 1   
    17     5    21 1   
    18     6     7 ar  
    19     6    11 ar  
    20     7     8 ar  
    21     7    39 1   
    22     8     9 ar  
    23     8    40 1   
    24     9    10 ar  
    25    10    11 ar  
    26    10    41 1   
    27    11    42 1   
    28    12    16 1   
    29    12    25 1   
    30    12    26 1   
    31    12    27 1   
    32    13    14 ar  
    33    13    18 ar  
    34    14    15 ar  
    35    14    43 1   
    36    15    16 ar  
    37    15    44 1   
    38    16    17 ar  
    39    17    18 ar  
    40    17    45 1   
    41    18    46 1   
    42    21    22 1   
    43    21    23 1   
    44    21    24 1   
    45    27    28 1   
    46    27    29 1   
    47    27    30 1   
@<TRIPOS>SUBSTRUCTURE
     1 FEP         1 TEMP              0 ****  ****    0 ROOT
