@<TRIPOS>MOLECULE
FEP
   46    47     1     0     0
SMALL
abcg2


@<TRIPOS>ATOM
      1 C1          -0.9820     0.2350     1.6700 c3         1 FEP      -0.015100
      2 C2           0.1980    -0.0240     0.7290 c3         1 FEP      -0.077400
      3 C3          -0.1940     0.0440    -0.7400 c3         1 FEP      -0.077400
      4 C4           0.9860    -0.2160    -1.6800 c3         1 FEP      -0.015100
      5 C5           0.8430    -0.1000     7.1790 c3         1 FEP      -0.055700
      6 C6          -0.5690     0.1590     3.1120 ca         1 FEP      -0.123300
      7 C7          -0.1420     1.2930     3.7980 ca         1 FEP      -0.133500
      8 C8           0.3130     1.2150     5.1070 ca         1 FEP      -0.078000
      9 C9           0.3660    -0.0090     5.7660 ca         1 FEP      -0.052300
     10 C10         -0.0860    -1.1430     5.0960 ca         1 FEP      -0.078000
     11 C11         -0.5400    -1.0580     3.7890 ca         1 FEP      -0.133500
     12 C12         -0.8450     0.1120    -7.1880 c3         1 FEP      -0.055700
     13 C13          0.5720    -0.1420    -3.1230 ca         1 FEP      -0.123300
     14 C14          0.5480     1.0730    -3.8030 ca         1 FEP      -0.133500
     15 C15          0.0930     1.1570    -5.1110 ca         1 FEP      -0.078000
     16 C16         -0.3650     0.0230    -5.7760 ca         1 FEP      -0.052300
     17 C17         -0.3170    -1.2000    -5.1130 ca         1 FEP      -0.078000
     18 C18          0.1390    -1.2760    -3.8050 ca         1 FEP      -0.133500
     19 F1           1.8000     0.8780     7.3840 f          1 FEP      -0.165000
     20 F2           1.5350    -1.2890     7.3350 f          1 FEP      -0.165000
     21 P1          -0.5120     0.0370     8.4830 p5         1 FEP       1.277000
     22 OP1          0.2490    -0.0370     9.8050 o          1 FEP      -0.908167
     23 OP2         -1.3920    -1.1710     8.1810 o          1 FEP      -0.908167
     24 OP3         -1.1360     1.3940     8.1750 o          1 FEP      -0.908167
     25 F3          -1.8040    -0.8640    -7.3900 f          1 FEP      -0.165000
     26 F4          -1.5350     1.3020    -7.3440 f          1 FEP      -0.165000
     27 P2           0.5050    -0.0300    -8.4960 p5         1 FEP       1.277000
     28 OP4         -0.2590     0.0470    -9.8160 o          1 FEP      -0.908167
     29 OP5          1.3910     1.1750    -8.1970 o          1 FEP      -0.908167
     30 OP6          1.1240    -1.3900    -8.1890 o          1 FEP      -0.908167
     31 HC11        -1.7700    -0.4950     1.4670 hc         1 FEP       0.027200
     32 HC12        -1.4030     1.2210     1.4540 hc         1 FEP       0.027200
     33 HC21         0.9880     0.7060     0.9340 hc         1 FEP       0.034700
     34 HC22         0.6230    -1.0080     0.9520 hc         1 FEP       0.034700
     35 HC31        -0.9840    -0.6860    -0.9440 hc         1 FEP       0.034700
     36 HC32        -0.6180     1.0280    -0.9620 hc         1 FEP       0.034700
     37 HC41         1.7730     0.5160    -1.4790 hc         1 FEP       0.027200
     38 HC42         1.4080    -1.2010    -1.4640 hc         1 FEP       0.027200
     39 HC7         -0.1680     2.2570     3.3020 ha         1 FEP       0.076500
     40 HC8          0.6310     2.1200     5.6060 ha         1 FEP       0.124000
     41 H10         -0.0820    -2.1050     5.5910 ha         1 FEP       0.124000
     42 H11         -0.8780    -1.9570     3.2850 ha         1 FEP       0.076500
     43 H14          0.8910     1.9720    -3.3030 ha         1 FEP       0.076500
     44 H15          0.0930     2.1160    -5.6090 ha         1 FEP       0.124000
     45 H17         -0.6400    -2.1040    -5.6080 ha         1 FEP       0.124000
     46 H18          0.1610    -2.2380    -3.3050 ha         1 FEP       0.076500
@<TRIPOS>BOND
     1     1     2 1   
     2     1     6 1   
     3     1    31 1   
     4     1    32 1   
     5     2     3 1   
     6     2    33 1   
     7     2    34 1   
     8     3     4 1   
     9     3    35 1   
    10     3    36 1   
    11     4    13 1   
    12     4    37 1   
    13     4    38 1   
    14     5     9 1   
    15     5    19 1   
    16     5    20 1   
    17     5    21 1   
    18     6     7 ar  
    19     6    11 ar  
    20     7     8 ar  
    21     7    39 1   
    22     8     9 ar  
    23     8    40 1   
    24     9    10 ar  
    25    10    11 ar  
    26    10    41 1   
    27    11    42 1   
    28    12    16 1   
    29    12    25 1   
    30    12    26 1   
    31    12    27 1   
    32    13    14 ar  
    33    13    18 ar  
    34    14    15 ar  
    35    14    43 1   
    36    15    16 ar  
    37    15    44 1   
    38    16    17 ar  
    39    17    18 ar  
    40    17    45 1   
    41    18    46 1   
    42    21    22 1   
    43    21    23 1   
    44    21    24 1   
    45    27    28 1   
    46    27    29 1   
    47    27    30 1   
@<TRIPOS>SUBSTRUCTURE
     1 FEP         1 TEMP              0 ****  ****    0 ROOT
