@<TRIPOS>MOLECULE
FER
   23    23     1     0     0
SMALL
bcc


@<TRIPOS>ATOM
      1 C4          -1.0560    -0.1000     2.4790 ca         1 FER       0.080100
      2 C5          -1.9800    -0.0950     1.4450 ca         1 FER      -0.141000
      3 C6          -1.5630    -0.0640     0.1230 ca         1 FER      -0.136000
      4 C3           0.3130    -0.0720     2.1720 ca         1 FER       0.038100
      5 C2           0.7210    -0.0410     0.8490 ca         1 FER      -0.181000
      6 C1          -0.2080    -0.0370    -0.2000 ca         1 FER       0.002200
      7 C10          2.5300    -0.0490     3.0310 c3         1 FER       0.138700
      8 C7           0.2930    -0.0040    -1.5740 ce         1 FER      -0.189200
      9 C8          -0.4280     0.0050    -2.6980 cf         1 FER      -0.162200
     10 C9           0.1880     0.0410    -4.0760 c          1 FER       0.904800
     11 O1           1.4330     0.0650    -4.1600 o          1 FER      -0.828800
     12 O2          -0.6230     0.0440    -5.0270 o          1 FER      -0.828800
     13 O4          -1.4920    -0.1300     3.7540 oh         1 FER      -0.512100
     14 O3           1.1340    -0.0790     3.2450 os         1 FER      -0.356900
     15 H5          -3.0360    -0.1150     1.6820 ha         1 FER       0.132000
     16 H6          -2.3130    -0.0600    -0.6560 ha         1 FER       0.139000
     17 H2           1.7770    -0.0190     0.6070 ha         1 FER       0.134000
     18 H101         2.9950    -0.0610     4.0140 h1         1 FER       0.035033
     19 H102         2.8730    -0.9200     2.4670 h1         1 FER       0.035033
     20 H103         2.8390     0.8580     2.5050 h1         1 FER       0.035033
     21 H7           1.3750     0.0150    -1.6730 ha         1 FER       0.138000
     22 H8          -1.5130    -0.0140    -2.6570 ha         1 FER       0.093000
     23 HO4         -0.7410    -0.1300     4.3610 ho         1 FER       0.429000
@<TRIPOS>BOND
     1     1     2 ar  
     2     1     4 ar  
     3     1    13 1   
     4     2     3 ar  
     5     2    15 1   
     6     3     6 ar  
     7     3    16 1   
     8     4     5 ar  
     9     4    14 1   
    10     5     6 ar  
    11     5    17 1   
    12     6     8 1   
    13     7    14 1   
    14     7    18 1   
    15     7    19 1   
    16     7    20 1   
    17     8     9 2   
    18     8    21 1   
    19     9    10 1   
    20     9    22 1   
    21    10    11 1   
    22    10    12 1   
    23    13    23 1   
@<TRIPOS>SUBSTRUCTURE
     1 FER         1 TEMP              0 ****  ****    0 ROOT
