@<TRIPOS>MOLECULE
FER
   23    23     1     0     0
SMALL
No Charge or Current Charge


@<TRIPOS>ATOM
      1 C4          -1.0980    -0.1000     2.4930 ca         1 FER       0.080100
      2 C5          -2.0310    -0.0970     1.4460 ca         1 FER      -0.123000
      3 C6          -1.5910    -0.0650     0.1120 ca         1 FER      -0.118000
      4 C3           0.2830    -0.0720     2.2140 ca         1 FER       0.038100
      5 C2           0.7210    -0.0400     0.8700 ca         1 FER      -0.163000
      6 C1          -0.2130    -0.0360    -0.1870 ca         1 FER       0.002200
      7 C10          2.5930    -0.0500     3.1030 c3         1 FER       0.161900
      8 C7           0.2820    -0.0020    -1.5940 ce         1 FER      -0.239200
      9 C8          -0.4280     0.0070    -2.7660 cf         1 FER      -0.212200
     10 C9           0.1630     0.0420    -4.1380 c          1 FER       0.694200
     11 O1           1.3780     0.0650    -4.2610 o          1 FER      -0.723500
     12 O2          -0.6100     0.0460    -5.0830 o          1 FER      -0.723500
     13 O4          -1.5240    -0.1310     3.7880 oh         1 FER      -0.551100
     14 O3           1.1640    -0.0770     3.2830 os         1 FER      -0.380100
     15 H5          -3.0960    -0.1180     1.6670 ha         1 FER       0.114000
     16 H6          -2.3310    -0.0630    -0.6830 ha         1 FER       0.121000
     17 H2           1.7800    -0.0180     0.6320 ha         1 FER       0.116000
     18 H101         3.0990    -0.0590     4.0760 h1         1 FER       0.035033
     19 H102         2.9310    -0.9260     2.5360 h1         1 FER       0.035033
     20 H103         2.9020     0.8570     2.5680 h1         1 FER       0.035033
     21 H7           1.3710     0.0170    -1.6730 ha         1 FER       0.188000
     22 H8          -1.5140    -0.0120    -2.7360 ha         1 FER       0.143000
     23 HO4         -0.7130    -0.1280     4.3450 ho         1 FER       0.468000
@<TRIPOS>BOND
     1     1     2 ar  
     2     1     4 ar  
     3     1    13 1   
     4     2     3 ar  
     5     2    15 1   
     6     3     6 ar  
     7     3    16 1   
     8     4     5 ar  
     9     4    14 1   
    10     5     6 ar  
    11     5    17 1   
    12     6     8 1   
    13     7    14 1   
    14     7    18 1   
    15     7    19 1   
    16     7    20 1   
    17     8     9 2   
    18     8    21 1   
    19     9    10 1   
    20     9    22 1   
    21    10    11 1   
    22    10    12 1   
    23    13    23 1   
@<TRIPOS>SUBSTRUCTURE
     1 FER         1 TEMP              0 ****  ****    0 ROOT
