@<TRIPOS>MOLECULE
FEU
   35    37     1     0     0
SMALL
abcg2


@<TRIPOS>ATOM
      1 C13         77.9300  -107.4520    90.3680 ca         1 FEU      -0.116300
      2 C15         80.0950  -106.5820    91.0070 ca         1 FEU      -0.103000
      3 C17         78.5050  -105.1500    89.8860 ca         1 FEU      -0.160000
      4 C24         75.9530  -104.8820    88.7270 c3         1 FEU       0.146900
      5 C01         72.3500  -107.7030    91.4030 ca         1 FEU       0.330000
      6 N02         71.8750  -107.8900    90.2120 nb         1 FEU      -0.268000
      7 C03         72.7480  -108.2450    89.2270 ca         1 FEU       0.428900
      8 N04         74.0550  -108.4190    89.3680 nb         1 FEU      -0.273000
      9 C05         74.4900  -108.2080    90.6010 ca         1 FEU       0.200500
     10 C06         73.6990  -107.8460    91.7030 ca         1 FEU      -0.390900
     11 CL7         71.2440  -107.2600    92.6500 cl         1 FEU      -0.152000
     12 N08         72.2090  -108.4100    88.0140 nv         1 FEU      -1.064900
     13 N09         75.7480  -108.3080    91.0620 na         1 FEU      -0.027100
     14 N10         75.8170  -108.0270    92.3820 nc         1 FEU      -0.518100
     15 C11         74.6080  -107.7520    92.7850 cd         1 FEU       0.413800
     16 C12         76.9500  -108.5900    90.3110 c3         1 FEU       0.155900
     17 C14         79.1740  -107.6190    90.9500 ca         1 FEU      -0.058000
     18 C16         79.7500  -105.3510    90.4720 ca         1 FEU      -0.146300
     19 C18         77.5970  -106.2020    89.8280 ca         1 FEU       0.159100
     20 C19         80.7230  -104.2170    90.5770 c3         1 FEU       0.354300
     21 F20         81.9720  -104.6030    90.2840 f          1 FEU      -0.113000
     22 F21         80.4260  -103.2010    89.7610 f          1 FEU      -0.113000
     23 F22         80.7610  -103.7170    91.8220 f          1 FEU      -0.113000
     24 O23         76.3810  -106.1140    89.2740 os         1 FEU      -0.332100
     25 H1          81.0600  -106.7490    91.4660 ha         1 FEU       0.134000
     26 H2          78.2470  -104.1850    89.4730 ha         1 FEU       0.136000
     27 H3          74.9470  -105.0500    88.3510 h1         1 FEU       0.046367
     28 H4          75.9210  -104.0910    89.4800 h1         1 FEU       0.046367
     29 H5          76.5890  -104.5610    87.8990 h1         1 FEU       0.046367
     30 H6          72.7700  -108.7660    87.2600 hn         1 FEU       0.507500
     31 H7          71.2110  -108.3920    87.8980 hn         1 FEU       0.507500
     32 H8          74.4100  -107.5010    93.8160 h4         1 FEU       0.058800
     33 H9          76.6410  -108.7990    89.2870 h1         1 FEU       0.077200
     34 H10         77.4110  -109.4970    90.7050 h1         1 FEU       0.077200
     35 H11         79.4350  -108.5840    91.3680 ha         1 FEU       0.124000
@<TRIPOS>BOND
     1     1    16 1   
     2     1    17 ar  
     3     1    19 ar  
     4     2    17 ar  
     5     2    18 ar  
     6     2    25 1   
     7     3    18 ar  
     8     3    19 ar  
     9     3    26 1   
    10     4    24 1   
    11     4    27 1   
    12     4    28 1   
    13     4    29 1   
    14     5     6 ar  
    15     5    10 ar  
    16     5    11 1   
    17     6     7 ar  
    18     7     8 ar  
    19     7    12 1   
    20     8     9 ar  
    21     9    10 ar  
    22     9    13 1   
    23    10    15 1   
    24    12    30 1   
    25    12    31 1   
    26    13    14 1   
    27    13    16 1   
    28    14    15 2   
    29    15    32 1   
    30    16    33 1   
    31    16    34 1   
    32    17    35 1   
    33    18    20 1   
    34    19    24 1   
    35    20    21 1   
    36    20    22 1   
    37    20    23 1   
@<TRIPOS>SUBSTRUCTURE
     1 FEU         1 TEMP              0 ****  ****    0 ROOT
