@<TRIPOS>MOLECULE
FEU
   35    37     1     0     0
SMALL
No Charge or Current Charge


@<TRIPOS>ATOM
      1 C13         77.9120  -107.4330    90.3280 ca         1 FEU      -0.116300
      2 C15         79.9000  -106.4060    91.3030 ca         1 FEU      -0.103000
      3 C17         78.5730  -105.1720    89.6850 ca         1 FEU      -0.160000
      4 C24         76.2340  -105.0680    87.9600 c3         1 FEU       0.146900
      5 C01         72.3750  -107.9610    91.7490 ca         1 FEU       0.330000
      6 N02         71.8010  -107.7650    90.5450 nb         1 FEU      -0.268000
      7 C03         72.6300  -107.8260    89.4850 ca         1 FEU       0.428900
      8 N04         73.9570  -108.0610    89.4830 nb         1 FEU      -0.273000
      9 C05         74.5060  -108.2480    90.6990 ca         1 FEU       0.200500
     10 C06         73.7460  -108.2070    91.8270 ca         1 FEU      -0.390900
     11 Cl7         71.3570  -107.9010    93.1790 cl         1 FEU      -0.152000
     12 N08         72.0590  -107.6370    88.2720 nv         1 FEU      -1.064900
     13 N09         75.7970  -108.5120    91.1310 na         1 FEU      -0.027100
     14 N10         75.8740  -108.6500    92.5250 nc         1 FEU      -0.518100
     15 C11         74.6150  -108.4570    92.9440 cd         1 FEU       0.413800
     16 C12         76.9640  -108.6270    90.2360 c3         1 FEU       0.155900
     17 C14         79.0190  -107.4930    91.1940 ca         1 FEU      -0.058000
     18 C16         79.6930  -105.2350    90.5440 ca         1 FEU      -0.146300
     19 C18         77.6840  -106.2650    89.5720 ca         1 FEU       0.159100
     20 C19         80.6470  -104.0380    90.6660 c3         1 FEU       0.354300
     21 F20         81.8810  -104.3970    91.0890 f          1 FEU      -0.113000
     22 F21         80.8160  -103.3980    89.4860 f          1 FEU      -0.113000
     23 F22         80.1780  -103.1250    91.5470 f          1 FEU      -0.113000
     24 O23         76.5830  -106.2280    88.7360 os         1 FEU      -0.332100
     25 H1          80.7440  -106.4790    91.9870 ha         1 FEU       0.134000
     26 H2          78.4060  -104.2640    89.1120 ha         1 FEU       0.136000
     27 H3          75.3210  -105.2590    87.3840 h1         1 FEU       0.046367
     28 H4          76.0500  -104.2050    88.6120 h1         1 FEU       0.046367
     29 H5          77.0350  -104.8150    87.2540 h1         1 FEU       0.046367
     30 H6          72.5900  -107.9080    87.4480 hn         1 FEU       0.507500
     31 H7          71.0460  -107.6970    88.2000 hn         1 FEU       0.507500
     32 H8          74.3930  -108.5100    94.0030 h4         1 FEU       0.058800
     33 H9          76.6150  -108.7460    89.2020 h1         1 FEU       0.077200
     34 H10         77.5050  -109.5450    90.4960 h1         1 FEU       0.077200
     35 H11         79.1960  -108.3850    91.7920 ha         1 FEU       0.124000
@<TRIPOS>BOND
     1     1    16 1   
     2     1    17 ar  
     3     1    19 ar  
     4     2    17 ar  
     5     2    18 ar  
     6     2    25 1   
     7     3    18 ar  
     8     3    19 ar  
     9     3    26 1   
    10     4    24 1   
    11     4    27 1   
    12     4    28 1   
    13     4    29 1   
    14     5     6 ar  
    15     5    10 ar  
    16     5    11 1   
    17     6     7 ar  
    18     7     8 ar  
    19     7    12 1   
    20     8     9 ar  
    21     9    10 ar  
    22     9    13 1   
    23    10    15 1   
    24    12    30 1   
    25    12    31 1   
    26    13    14 1   
    27    13    16 1   
    28    14    15 2   
    29    15    32 1   
    30    16    33 1   
    31    16    34 1   
    32    17    35 1   
    33    18    20 1   
    34    19    24 1   
    35    20    21 1   
    36    20    22 1   
    37    20    23 1   
@<TRIPOS>SUBSTRUCTURE
     1 FEU         1 TEMP              0 ****  ****    0 ROOT
