@<TRIPOS>MOLECULE
FEW
   72    76     1     0     0
SMALL
No Charge or Current Charge


@<TRIPOS>ATOM
      1 C13         -5.1740    -0.3720    -1.3380 ca         1 FEW      -0.062300
      2 C17         -7.9980     3.3920     0.5150 c6         1 FEW       0.163800
      3 C20         -7.4260     1.5470     2.0090 c6         1 FEW       0.163800
      4 C21         -7.0870     0.6420     0.7780 c6         1 FEW       0.130800
      5 C22         -5.4160    -1.7570    -1.2980 ca         1 FEW      -0.092000
      6 C24         -4.6210    -4.1770    -1.0260 c3         1 FEW       0.356300
      7 C28         -3.0540    -2.1650    -0.8740 ca         1 FEW      -0.086000
      8 C01          4.9940     3.1460    -1.3940 c3         1 FEW      -0.086600
      9 C03          3.9080     4.3990     0.5460 c3         1 FEW      -0.086600
     10 C04          3.1050     2.0240    -0.1180 ca         1 FEW      -0.024300
     11 C05          1.8140     2.4930    -0.4460 ca         1 FEW      -0.117000
     12 C06          0.7210     1.6170    -0.5430 ca         1 FEW      -0.078000
     13 C07          0.8860     0.2300    -0.3230 ca         1 FEW      -0.159600
     14 C08         -0.2680    -0.7530    -0.4170 c          1 FEW       0.623700
     15 C11         -2.7980    -0.7750    -0.9070 ca         1 FEW      -0.026000
     16 C12         -3.8670     0.1080    -1.1410 ca         1 FEW      -0.124000
     17 C14         -6.3190     0.6070    -1.5920 c3         1 FEW       0.215100
     18 C16         -7.6640     2.5010    -0.7270 c6         1 FEW       0.130800
     19 C19         -9.8200     2.0410     1.5410 c3         1 FEW       0.151100
     20 C23         -4.3620    -2.6640    -1.0590 ca         1 FEW      -0.170300
     21 C29          2.1790    -0.2450    -0.0130 ca         1 FEW      -0.032000
     22 C30          3.2780     0.6290     0.0850 ca         1 FEW       0.021000
     23 C31          4.5640     0.0560     0.3800 cg         1 FEW      -0.086000
     24 C32          5.6650    -0.4100     0.6210 ch         1 FEW      -0.119300
     25 C33          6.9840    -0.8710     0.8750 cd         1 FEW      -0.040800
     26 C34          7.4360    -2.0840     1.3580 cc         1 FEW       0.009600
     27 C36          9.2240    -0.9350     1.0370 cd         1 FEW      -0.138000
     28 C37         10.5400    -0.4080     0.9210 cd         1 FEW       0.398900
     29 C39          9.6010     1.5730     0.1200 cc         1 FEW       0.290900
     30 C40          8.2880     1.1130     0.2110 cd         1 FEW      -0.152000
     31 F25         -4.3510    -4.7470    -2.2220 f          1 FEW      -0.113000
     32 F26         -3.8520    -4.8050    -0.1070 f          1 FEW      -0.113000
     33 F27         -5.9040    -4.4800    -0.7250 f          1 FEW      -0.113000
     34 N10         -1.5080    -0.2030    -0.7240 ns         1 FEW      -0.143000
     35 N15         -6.6550     1.4420    -0.4130 n3         1 FEW      -0.728600
     36 N18         -8.4530     2.5910     1.6970 n3         1 FEW      -0.713600
     37 N35          8.8170    -2.1230     1.4580 nc         1 FEW      -0.264600
     38 N38         10.7360     0.8340     0.4670 nc         1 FEW      -0.651000
     39 N41          8.1580    -0.1830     0.6900 na         1 FEW       0.162100
     40 O09         -0.0920    -1.9510    -0.2260 o          1 FEW      -0.572100
     41 H1          -7.0930     3.9600     0.7800 h1         1 FEW       0.057450
     42 H2          -8.7600     4.1330     0.2320 h1         1 FEW       0.057450
     43 H3          -7.7610     0.9100     2.8420 h1         1 FEW       0.057450
     44 H4          -6.4960     2.0310     2.3420 h1         1 FEW       0.057450
     45 H5          -6.2940    -0.0580     1.0770 h1         1 FEW       0.037950
     46 H6          -7.9680     0.0350     0.5260 h1         1 FEW       0.037950
     47 H7          -6.4290    -2.1230    -1.4550 ha         1 FEW       0.128000
     48 H8          -2.2480    -2.8730    -0.7100 ha         1 FEW       0.167000
     49 H9           4.3120     3.5660    -2.1430 hc         1 FEW       0.038700
     50 H10          5.8700     3.8020    -1.3180 hc         1 FEW       0.038700
     51 H11          5.3340     2.1670    -1.7520 hc         1 FEW       0.038700
     52 H12          5.0330     2.6210     0.6780 hc         1 FEW       0.052700
     53 H13          3.3030     4.9770    -0.1620 hc         1 FEW       0.038700
     54 H14          3.3440     4.2890     1.4810 hc         1 FEW       0.038700
     55 H15          4.8100     4.9830     0.7640 hc         1 FEW       0.038700
     56 H16          1.6410     3.5480    -0.6380 ha         1 FEW       0.121000
     57 H17         -0.2490     2.0390    -0.7950 ha         1 FEW       0.115000
     58 H18         -3.6880     1.1810    -1.1670 ha         1 FEW       0.132000
     59 H19         -6.0260     1.2540    -2.4310 h1         1 FEW       0.043700
     60 H20         -7.2060     0.0480    -1.9200 h1         1 FEW       0.043700
     61 H21         -8.5930     2.0410    -1.0970 h1         1 FEW       0.037950
     62 H22         -7.2910     3.1510    -1.5320 h1         1 FEW       0.037950
     63 H23         -9.8810     1.3390     0.6990 h1         1 FEW       0.030700
     64 H24        -10.1270     1.5080     2.4510 h1         1 FEW       0.030700
     65 H25        -10.5430     2.8490     1.3640 h1         1 FEW       0.030700
     66 H26          2.3380    -1.3100     0.1510 ha         1 FEW       0.146000
     67 H27          6.8430    -2.9470     1.6450 h4         1 FEW       0.239000
     68 H28         11.4330    -0.9610     1.1830 h4         1 FEW       0.051100
     69 H29          9.8200     2.5690    -0.2400 h4         1 FEW       0.037100
     70 H30          7.4040     1.6750    -0.0540 h4         1 FEW       0.158000
     71 H31         -1.4930     0.8010    -0.8400 hn         1 FEW       0.156000
     72 C02          4.2900     3.0120    -0.0260 c3         1 FEW      -0.023400
@<TRIPOS>BOND
     1     1     5 ar  
     2     1    16 ar  
     3     1    17 1   
     4     2    18 1   
     5     2    36 1   
     6     2    41 1   
     7     2    42 1   
     8     3     4 1   
     9     3    36 1   
    10     3    43 1   
    11     3    44 1   
    12     4    35 1   
    13     4    45 1   
    14     4    46 1   
    15     5    20 ar  
    16     5    47 1   
    17     6    20 1   
    18     6    31 1   
    19     6    32 1   
    20     6    33 1   
    21     7    15 ar  
    22     7    20 ar  
    23     7    48 1   
    24     8    49 1   
    25     8    50 1   
    26     8    51 1   
    27     8    72 1   
    28     9    53 1   
    29     9    54 1   
    30     9    55 1   
    31     9    72 1   
    32    10    11 ar  
    33    10    22 ar  
    34    10    72 1   
    35    11    12 ar  
    36    11    56 1   
    37    12    13 ar  
    38    12    57 1   
    39    13    14 1   
    40    13    21 ar  
    41    14    34 1   
    42    14    40 2   
    43    15    16 ar  
    44    15    34 1   
    45    16    58 1   
    46    17    35 1   
    47    17    59 1   
    48    17    60 1   
    49    18    35 1   
    50    18    61 1   
    51    18    62 1   
    52    19    36 1   
    53    19    63 1   
    54    19    64 1   
    55    19    65 1   
    56    21    22 ar  
    57    21    66 1   
    58    22    23 1   
    59    23    24 3   
    60    24    25 1   
    61    25    26 2   
    62    25    39 1   
    63    26    37 1   
    64    26    67 1   
    65    27    28 1   
    66    27    37 2   
    67    27    39 1   
    68    28    38 2   
    69    28    68 1   
    70    29    30 2   
    71    29    38 1   
    72    29    69 1   
    73    30    39 1   
    74    30    70 1   
    75    34    71 1   
    76    52    72 1   
@<TRIPOS>SUBSTRUCTURE
     1 FEW         1 TEMP              0 ****  ****    0 ROOT
