@<TRIPOS>MOLECULE
FEW
   72    76     1     0     0
SMALL
abcg2


@<TRIPOS>ATOM
      1 C13         -5.1730    -1.0300    -1.0500 ca         1 FEW      -0.062300
      2 C17         -7.1190     3.4160    -0.8870 c6         1 FEW       0.163800
      3 C20         -6.6110     2.3880     1.1900 c6         1 FEW       0.163800
      4 C21         -6.7190     1.0130     0.5430 c6         1 FEW       0.130800
      5 C22         -5.3110    -2.3940    -0.8420 ca         1 FEW      -0.092000
      6 C24         -4.3870    -4.6190    -0.2620 c3         1 FEW       0.356300
      7 C28         -2.9640    -2.5630    -0.2630 ca         1 FEW      -0.086000
      8 C01          3.8340     3.9270    -0.5600 c3         1 FEW      -0.086600
      9 C03          3.7520     3.7760     1.9560 c3         1 FEW      -0.086600
     10 C04          2.7380     1.9660     0.5250 ca         1 FEW      -0.024300
     11 C05          1.4060     2.3470     0.6560 ca         1 FEW      -0.117000
     12 C06          0.3690     1.4400     0.5200 ca         1 FEW      -0.078000
     13 C07          0.6400     0.1000     0.2460 ca         1 FEW      -0.159600
     14 C08         -0.4180    -0.9460     0.1140 c          1 FEW       0.623700
     15 C11         -2.8260    -1.1890    -0.4650 ca         1 FEW      -0.026000
     16 C12         -3.9330    -0.4390    -0.8560 ca         1 FEW      -0.124000
     17 C14         -6.3430    -0.1940    -1.5050 c3         1 FEW       0.215100
     18 C16         -7.2300     2.0470    -1.5520 c6         1 FEW       0.130800
     19 C19         -8.8330     3.2910     0.8270 c3         1 FEW       0.151100
     20 C23         -4.2090    -3.1440    -0.4530 ca         1 FEW      -0.170300
     21 C29          1.9610    -0.3040     0.1250 ca         1 FEW      -0.032000
     22 C30          3.0060     0.6140     0.2490 ca         1 FEW       0.021000
     23 C31          4.3380     0.1430     0.0880 cg         1 FEW      -0.086000
     24 C32          5.4550    -0.2930    -0.0590 ch         1 FEW      -0.119300
     25 C33          6.7610    -0.7720    -0.2240 cd         1 FEW      -0.040800
     26 C34          7.2650    -2.0280    -0.5340 cc         1 FEW       0.009600
     27 C36          8.9670    -0.7820    -0.3200 cd         1 FEW      -0.138000
     28 C37         10.2370    -0.1780    -0.2340 cd         1 FEW       0.398900
     29 C39          9.2790     1.8340     0.2720 cc         1 FEW       0.290900
     30 C40          8.0170     1.3400     0.2100 cd         1 FEW      -0.152000
     31 F25         -4.5650    -5.2490    -1.4340 f          1 FEW      -0.113000
     32 F26         -3.3420    -5.1990     0.3340 f          1 FEW      -0.113000
     33 F27         -5.4660    -4.8960     0.4830 f          1 FEW      -0.113000
     34 N10         -1.6290    -0.4890    -0.2940 ns         1 FEW      -0.143000
     35 N15         -6.3710     1.0990    -0.8650 n3         1 FEW      -0.728600
     36 N18         -7.4180     3.4030     0.5350 n3         1 FEW      -0.713600
     37 N35          8.6030    -2.0270    -0.5910 nc         1 FEW      -0.264600
     38 N38         10.3890     1.0830     0.0520 nc         1 FEW      -0.651000
     39 N41          7.8710     0.0190    -0.0880 na         1 FEW       0.162100
     40 O09         -0.1770    -2.1170     0.3480 o          1 FEW      -0.572100
     41 H1          -6.0950     3.7780    -1.0200 h1         1 FEW       0.057450
     42 H2          -7.7810     4.1260    -1.3890 h1         1 FEW       0.057450
     43 H3          -6.8960     2.3230     2.2430 h1         1 FEW       0.057450
     44 H4          -5.5630     2.7040     1.1580 h1         1 FEW       0.057450
     45 H5          -6.0350     0.3270     1.0480 h1         1 FEW       0.037950
     46 H6          -7.7360     0.6050     0.6800 h1         1 FEW       0.037950
     47 H7          -6.2820    -2.8570    -0.9790 ha         1 FEW       0.128000
     48 H8          -2.1170    -3.1560     0.0370 ha         1 FEW       0.167000
     49 H9           2.9140     4.5140    -0.5960 hc         1 FEW       0.038700
     50 H10          4.6730     4.6220    -0.5030 hc         1 FEW       0.038700
     51 H11          3.9160     3.3740    -1.4970 hc         1 FEW       0.038700
     52 H12          4.7950     2.4560     0.6510 hc         1 FEW       0.052700
     53 H13          2.8490     4.3870     2.0000 hc         1 FEW       0.038700
     54 H14          3.7560     3.1150     2.8230 hc         1 FEW       0.038700
     55 H15          4.6060     4.4490     2.0420 hc         1 FEW       0.038700
     56 H16          1.1630     3.3790     0.8740 ha         1 FEW       0.121000
     57 H17         -0.6440     1.7940     0.6620 ha         1 FEW       0.115000
     58 H18         -3.8420     0.6330    -0.9940 ha         1 FEW       0.132000
     59 H19         -6.2520    -0.0360    -2.5850 h1         1 FEW       0.043700
     60 H20         -7.2750    -0.7650    -1.3590 h1         1 FEW       0.043700
     61 H21         -8.2820     1.7130    -1.5680 h1         1 FEW       0.037950
     62 H22         -6.9100     2.1310    -2.5930 h1         1 FEW       0.037950
     63 H23         -9.3090     2.3550     0.5040 h1         1 FEW       0.030700
     64 H24         -8.9890     3.3790     1.9030 h1         1 FEW       0.030700
     65 H25         -9.3700     4.1120     0.3490 h1         1 FEW       0.030700
     66 H26          2.1920    -1.3410    -0.0790 ha         1 FEW       0.146000
     67 H27          6.6810    -2.9170    -0.7150 h4         1 FEW       0.239000
     68 H28         11.1170    -0.7850    -0.4130 h4         1 FEW       0.051100
     69 H29          9.4310     2.8780     0.5060 h4         1 FEW       0.037100
     70 H30          7.1260     1.9250     0.3820 h4         1 FEW       0.158000
     71 H31         -1.6850     0.4870    -0.5430 hn         1 FEW       0.156000
     72 C02          3.8400     2.9890     0.6490 c3         1 FEW      -0.023400
@<TRIPOS>BOND
     1     1     5 ar  
     2     1    16 ar  
     3     1    17 1   
     4     2    18 1   
     5     2    36 1   
     6     2    41 1   
     7     2    42 1   
     8     3     4 1   
     9     3    36 1   
    10     3    43 1   
    11     3    44 1   
    12     4    35 1   
    13     4    45 1   
    14     4    46 1   
    15     5    20 ar  
    16     5    47 1   
    17     6    20 1   
    18     6    31 1   
    19     6    32 1   
    20     6    33 1   
    21     7    15 ar  
    22     7    20 ar  
    23     7    48 1   
    24     8    49 1   
    25     8    50 1   
    26     8    51 1   
    27     8    72 1   
    28     9    53 1   
    29     9    54 1   
    30     9    55 1   
    31     9    72 1   
    32    10    11 ar  
    33    10    22 ar  
    34    10    72 1   
    35    11    12 ar  
    36    11    56 1   
    37    12    13 ar  
    38    12    57 1   
    39    13    14 1   
    40    13    21 ar  
    41    14    34 1   
    42    14    40 2   
    43    15    16 ar  
    44    15    34 1   
    45    16    58 1   
    46    17    35 1   
    47    17    59 1   
    48    17    60 1   
    49    18    35 1   
    50    18    61 1   
    51    18    62 1   
    52    19    36 1   
    53    19    63 1   
    54    19    64 1   
    55    19    65 1   
    56    21    22 ar  
    57    21    66 1   
    58    22    23 1   
    59    23    24 3   
    60    24    25 1   
    61    25    26 2   
    62    25    39 1   
    63    26    37 1   
    64    26    67 1   
    65    27    28 1   
    66    27    37 2   
    67    27    39 1   
    68    28    38 2   
    69    28    68 1   
    70    29    30 2   
    71    29    38 1   
    72    29    69 1   
    73    30    39 1   
    74    30    70 1   
    75    34    71 1   
    76    52    72 1   
@<TRIPOS>SUBSTRUCTURE
     1 FEW         1 TEMP              0 ****  ****    0 ROOT
