@<TRIPOS>MOLECULE
FEX
   75    78     1     0     0
SMALL
No Charge or Current Charge


@<TRIPOS>ATOM
      1 C26          5.1070    -2.8600     6.1340 c3         1 FEX       0.152900
      2 O2           4.4980    -2.1280     5.0560 os         1 FEX      -0.451100
      3 C25          4.7420    -0.7820     4.9710 c          1 FEX       0.590100
      4 O3           5.4350    -0.1520     5.7580 o          1 FEX      -0.488000
      5 C24          4.0370    -0.1530     3.7720 c3         1 FEX      -0.144400
      6 C23          2.6870     0.4820     4.1740 c3         1 FEX      -0.018100
      7 C21          1.9580     1.0380     2.9590 ca         1 FEX      -0.077300
      8 C20          2.0280     2.4060     2.6440 ca         1 FEX      -0.111000
      9 C19          1.3630     2.8970     1.5090 ca         1 FEX      -0.100000
     10 C18          0.6700     2.0160     0.6620 ca         1 FEX      -0.092000
     11 C17          0.6700     0.6270     0.9100 ca         1 FEX      -0.033000
     12 C22          1.2370     0.1690     2.1200 ca         1 FEX      -0.119000
     13 N2          -0.1400    -0.2520     0.0910 n          1 FEX      -0.243400
     14 C15          0.3350    -1.6520    -0.1400 c3         1 FEX       0.159300
     15 C12          1.8380    -1.8950     0.0150 ca         1 FEX      -0.111300
     16 C13          2.7700    -1.1170    -0.6980 ca         1 FEX      -0.092500
     17 C14          4.1490    -1.3030    -0.4990 ca         1 FEX      -0.111500
     18 C9           4.6360    -2.2760     0.4090 cp         1 FEX       0.000000
     19 C10          3.6840    -3.0710     1.0940 ca         1 FEX      -0.111500
     20 C11          2.3060    -2.8860     0.8990 ca         1 FEX      -0.092500
     21 C6           6.1030    -2.4470     0.6520 cp         1 FEX      -0.106000
     22 C7           7.0470    -2.2620    -0.3870 ca         1 FEX      -0.048000
     23 C8           8.4250    -2.4150    -0.1520 ca         1 FEX      -0.198500
     24 C1           8.9060    -2.7550     1.1270 ca         1 FEX       0.349000
     25 C4           7.9740    -2.9400     2.1660 ca         1 FEX      -0.198500
     26 C5           6.5970    -2.7890     1.9340 ca         1 FEX      -0.048000
     27 N1          10.2960    -2.9080     1.3620 nh         1 FEX      -0.834400
     28 C2          11.3030    -2.1790     0.5550 c3         1 FEX       0.223100
     29 C3          10.8070    -3.8020     2.4280 c3         1 FEX       0.223100
     30 C16         -1.4850     0.0810    -0.2370 c          1 FEX       0.606100
     31 O1          -2.1030     0.9100     0.4250 o          1 FEX      -0.580100
     32 C27         -2.1840    -0.5720    -1.4640 c6         1 FEX      -0.135700
     33 C28         -2.9780    -1.8580    -1.0920 c6         1 FEX      -0.067900
     34 C29         -3.5830    -2.5270    -2.3510 c6         1 FEX      -0.074900
     35 C30         -4.4440    -1.5280    -3.1650 c6         1 FEX      -0.075400
     36 C31         -3.6270    -0.2720    -3.5590 c6         1 FEX      -0.074900
     37 C32         -3.0260     0.4240    -2.3120 c6         1 FEX      -0.067900
     38 H261         4.8290    -3.9200     6.0810 h1         1 FEX       0.047033
     39 H262         4.7790    -2.4700     7.1070 h1         1 FEX       0.047033
     40 H263         6.2020    -2.7920     6.0830 h1         1 FEX       0.047033
     41 H241         4.6800     0.6210     3.3390 hc         1 FEX       0.079700
     42 H242         3.8270    -0.9330     3.0320 hc         1 FEX       0.079700
     43 H231         2.8620     1.2730     4.9150 hc         1 FEX       0.061200
     44 H232         2.0640    -0.2730     4.6720 hc         1 FEX       0.061200
     45 H20          2.5810     3.0900     3.2830 ha         1 FEX       0.112000
     46 H19          1.3890     3.9610     1.2820 ha         1 FEX       0.114000
     47 H18          0.1620     2.4130    -0.2140 ha         1 FEX       0.125000
     48 H22          1.1510    -0.8760     2.4010 ha         1 FEX       0.112000
     49 H151         0.0780    -1.9800    -1.1520 h1         1 FEX       0.049200
     50 H152        -0.2070    -2.3050     0.5560 h1         1 FEX       0.049200
     51 H13          2.4250    -0.3480    -1.3850 ha         1 FEX       0.113500
     52 H14          4.8450    -0.6650    -1.0370 ha         1 FEX       0.115500
     53 H10          4.0160    -3.8400     1.7860 ha         1 FEX       0.115500
     54 H11          1.6010    -3.5030     1.4530 ha         1 FEX       0.113500
     55 H7           6.7100    -2.0130    -1.3910 ha         1 FEX       0.112500
     56 H8           9.1140    -2.2800    -0.9800 ha         1 FEX       0.111000
     57 H4           8.3110    -3.1880     3.1680 ha         1 FEX       0.111000
     58 H5           5.9080    -2.9240     2.7640 ha         1 FEX       0.112500
     59 H21         12.2400    -2.0580     1.1150 h1         1 FEX       0.035367
     60 H22A        10.9390    -1.1750     0.2990 h1         1 FEX       0.035367
     61 H23         11.5200    -2.7240    -0.3740 h1         1 FEX       0.035367
     62 H31A        10.1770    -4.6980     2.5170 h1         1 FEX       0.035367
     63 H32A        10.8190    -3.2810     3.3950 h1         1 FEX       0.035367
     64 H33         11.8280    -4.1380     2.2010 h1         1 FEX       0.035367
     65 H28         -3.7840    -1.6010    -0.3900 hc         1 FEX       0.051200
     66 H29         -4.1950    -3.3900    -2.0560 hc         1 FEX       0.039450
     67 H30         -5.3210    -1.2290    -2.5740 hc         1 FEX       0.041700
     68 H31         -2.8200    -0.5570    -4.2480 hc         1 FEX       0.039450
     69 H32         -2.4030     1.2730    -2.6250 hc         1 FEX       0.051200
     70 HC1         -1.3780    -0.9210    -2.1190 hc         1 FEX       0.059700
     71 HC2         -3.8390     0.8410    -1.7010 hc         1 FEX       0.051200
     72 HC3         -4.2680     0.4330    -4.1050 hc         1 FEX       0.039450
     73 HC4         -4.8290    -2.0200    -4.0680 hc         1 FEX       0.041700
     74 HC5         -2.7760    -2.9200    -2.9850 hc         1 FEX       0.039450
     75 HC6         -2.3330    -2.5770    -0.5700 hc         1 FEX       0.051200
@<TRIPOS>BOND
     1     1     2 1   
     2     1    38 1   
     3     1    39 1   
     4     1    40 1   
     5     2     3 1   
     6     3     4 2   
     7     3     5 1   
     8     5     6 1   
     9     5    41 1   
    10     5    42 1   
    11     6     7 1   
    12     6    43 1   
    13     6    44 1   
    14     7     8 ar  
    15     7    12 ar  
    16     8     9 ar  
    17     8    45 1   
    18     9    10 ar  
    19     9    46 1   
    20    10    11 ar  
    21    10    47 1   
    22    11    12 ar  
    23    11    13 1   
    24    12    48 1   
    25    13    14 1   
    26    13    30 1   
    27    14    15 1   
    28    14    49 1   
    29    14    50 1   
    30    15    16 ar  
    31    15    20 ar  
    32    16    17 ar  
    33    16    51 1   
    34    17    18 ar  
    35    17    52 1   
    36    18    19 ar  
    37    18    21 1   
    38    19    20 ar  
    39    19    53 1   
    40    20    54 1   
    41    21    22 ar  
    42    21    26 ar  
    43    22    23 ar  
    44    22    55 1   
    45    23    24 ar  
    46    23    56 1   
    47    24    25 ar  
    48    24    27 1   
    49    25    26 ar  
    50    25    57 1   
    51    26    58 1   
    52    27    28 1   
    53    27    29 1   
    54    28    59 1   
    55    28    60 1   
    56    28    61 1   
    57    29    62 1   
    58    29    63 1   
    59    29    64 1   
    60    30    31 2   
    61    30    32 1   
    62    32    33 1   
    63    32    37 1   
    64    32    70 1   
    65    33    34 1   
    66    33    65 1   
    67    33    75 1   
    68    34    35 1   
    69    34    66 1   
    70    34    74 1   
    71    35    36 1   
    72    35    67 1   
    73    35    73 1   
    74    36    37 1   
    75    36    68 1   
    76    36    72 1   
    77    37    69 1   
    78    37    71 1   
@<TRIPOS>SUBSTRUCTURE
     1 FEX         1 TEMP              0 ****  ****    0 ROOT
