@<TRIPOS>MOLECULE
FEX
   75    78     1     0     0
SMALL
abcg2


@<TRIPOS>ATOM
      1 C26          5.2810    -2.9730     6.2400 c3         1 FEX       0.152900
      2 O2           4.8240    -2.1150     5.1960 os         1 FEX      -0.451100
      3 C25          3.6970    -1.4420     5.3960 c          1 FEX       0.590100
      4 O3           3.0550    -1.5110     6.4140 o          1 FEX      -0.488000
      5 C24          3.3410    -0.6120     4.1940 c3         1 FEX      -0.144400
      6 C23          2.0700     0.2180     4.3630 c3         1 FEX      -0.018100
      7 C21          1.7230     0.8550     3.0460 ca         1 FEX      -0.077300
      8 C20          2.2610     2.0790     2.6700 ca         1 FEX      -0.111000
      9 C19          2.0380     2.5800     1.3930 ca         1 FEX      -0.100000
     10 C18          1.2940     1.8590     0.4730 ca         1 FEX      -0.092000
     11 C17          0.7340     0.6430     0.8470 ca         1 FEX      -0.033000
     12 C22          0.9340     0.1620     2.1330 ca         1 FEX      -0.119000
     13 N2           0.0330    -0.1570    -0.0990 n          1 FEX      -0.243400
     14 C15          0.4170    -1.5690    -0.1680 c3         1 FEX       0.159300
     15 C12          1.9020    -1.7700    -0.0320 ca         1 FEX      -0.111300
     16 C13          2.8060    -1.0870    -0.8400 ca         1 FEX      -0.092500
     17 C14          4.1710    -1.2530    -0.6720 ca         1 FEX      -0.111500
     18 C9           4.6820    -2.1150     0.3040 cp         1 FEX       0.000000
     19 C10          3.7680    -2.8240     1.0830 ca         1 FEX      -0.111500
     20 C11          2.4030    -2.6470     0.9210 ca         1 FEX      -0.092500
     21 C6           6.1320    -2.2610     0.5150 cp         1 FEX      -0.106000
     22 C7           7.0420    -2.2010    -0.5410 ca         1 FEX      -0.048000
     23 C8           8.4030    -2.3420    -0.3470 ca         1 FEX      -0.198500
     24 C1           8.9380    -2.5510     0.9400 ca         1 FEX       0.349000
     25 C4           8.0210    -2.6040     2.0080 ca         1 FEX      -0.198500
     26 C5           6.6630    -2.4620     1.7910 ca         1 FEX      -0.048000
     27 N1          10.2790    -2.6920     1.1420 nh         1 FEX      -0.834400
     28 C2          11.1870    -2.6510     0.0210 c3         1 FEX       0.223100
     29 C3          10.7850    -2.9710     2.4640 c3         1 FEX       0.223100
     30 C16         -1.0840     0.3610    -0.7000 c          1 FEX       0.606100
     31 O1          -1.4450     1.5020    -0.4630 o          1 FEX      -0.580100
     32 C27         -1.8870    -0.5300    -1.6330 c6         1 FEX      -0.135700
     33 C28         -2.7950    -1.4550    -0.8040 c6         1 FEX      -0.067900
     34 C29         -3.6440    -2.3460    -1.7060 c6         1 FEX      -0.074900
     35 C30         -4.4590    -1.5240    -2.6960 c6         1 FEX      -0.075400
     36 C31         -3.5580    -0.6040    -3.5130 c6         1 FEX      -0.074900
     37 C32         -2.7200     0.2980    -2.6110 c6         1 FEX      -0.067900
     38 H261         6.2150    -3.4000     5.8880 h1         1 FEX       0.047033
     39 H262         4.5700    -3.7760     6.4340 h1         1 FEX       0.047033
     40 H263         5.4620    -2.4220     7.1620 h1         1 FEX       0.047033
     41 H241         4.1890     0.0360     3.9570 hc         1 FEX       0.079700
     42 H242         3.2400    -1.2820     3.3340 hc         1 FEX       0.079700
     43 H231         2.2180     0.9780     5.1330 hc         1 FEX       0.061200
     44 H232         1.2500    -0.4200     4.6970 hc         1 FEX       0.061200
     45 H20          2.8750     2.6360     3.3680 ha         1 FEX       0.112000
     46 H19          2.4670     3.5310     1.1050 ha         1 FEX       0.114000
     47 H18          1.1700     2.2320    -0.5340 ha         1 FEX       0.125000
     48 H22          0.4960    -0.7850     2.4260 ha         1 FEX       0.112000
     49 H151         0.0910    -1.9790    -1.1220 h1         1 FEX       0.049200
     50 H152        -0.0950    -2.1470     0.6060 h1         1 FEX       0.049200
     51 H13          2.4450    -0.3950    -1.5910 ha         1 FEX       0.113500
     52 H14          4.8500    -0.6790    -1.2900 ha         1 FEX       0.115500
     53 H10          4.1230    -3.5260     1.8280 ha         1 FEX       0.115500
     54 H11          1.7190    -3.1960     1.5600 ha         1 FEX       0.113500
     55 H7           6.6830    -2.0610    -1.5540 ha         1 FEX       0.112500
     56 H8           9.0510    -2.3010    -1.2110 ha         1 FEX       0.111000
     57 H4           8.3650    -2.7490     3.0230 ha         1 FEX       0.111000
     58 H5           6.0040    -2.4800     2.6510 ha         1 FEX       0.112500
     59 H21         12.2050    -2.7740     0.3790 h1         1 FEX       0.035367
     60 H22A        11.1390    -1.6960    -0.5120 h1         1 FEX       0.035367
     61 H23         10.9910    -3.4460    -0.7050 h1         1 FEX       0.035367
     62 H31A        10.3810    -3.9020     2.8750 h1         1 FEX       0.035367
     63 H32A        10.5570    -2.1690     3.1720 h1         1 FEX       0.035367
     64 H33         11.8650    -3.0720     2.4230 h1         1 FEX       0.035367
     65 H28         -3.4470    -0.8390    -0.1760 hc         1 FEX       0.051200
     66 H29         -4.3010    -2.9660    -1.0910 hc         1 FEX       0.039450
     67 H30         -5.1920    -0.9200    -2.1490 hc         1 FEX       0.041700
     68 H31         -2.8970    -1.2090    -4.1440 hc         1 FEX       0.039450
     69 H32         -2.0660     0.9290    -3.2170 hc         1 FEX       0.051200
     70 HC1         -1.2110    -1.1540    -2.2270 hc         1 FEX       0.059700
     71 HC2         -3.3830     0.9690    -2.0580 hc         1 FEX       0.051200
     72 HC3         -4.1560     0.0090    -4.1910 hc         1 FEX       0.039450
     73 HC4         -5.0280    -2.1820    -3.3560 hc         1 FEX       0.041700
     74 HC5         -2.9880    -3.0320    -2.2520 hc         1 FEX       0.039450
     75 HC6         -2.2070    -2.0760    -0.1270 hc         1 FEX       0.051200
@<TRIPOS>BOND
     1     1     2 1   
     2     1    38 1   
     3     1    39 1   
     4     1    40 1   
     5     2     3 1   
     6     3     4 2   
     7     3     5 1   
     8     5     6 1   
     9     5    41 1   
    10     5    42 1   
    11     6     7 1   
    12     6    43 1   
    13     6    44 1   
    14     7     8 ar  
    15     7    12 ar  
    16     8     9 ar  
    17     8    45 1   
    18     9    10 ar  
    19     9    46 1   
    20    10    11 ar  
    21    10    47 1   
    22    11    12 ar  
    23    11    13 1   
    24    12    48 1   
    25    13    14 1   
    26    13    30 1   
    27    14    15 1   
    28    14    49 1   
    29    14    50 1   
    30    15    16 ar  
    31    15    20 ar  
    32    16    17 ar  
    33    16    51 1   
    34    17    18 ar  
    35    17    52 1   
    36    18    19 ar  
    37    18    21 1   
    38    19    20 ar  
    39    19    53 1   
    40    20    54 1   
    41    21    22 ar  
    42    21    26 ar  
    43    22    23 ar  
    44    22    55 1   
    45    23    24 ar  
    46    23    56 1   
    47    24    25 ar  
    48    24    27 1   
    49    25    26 ar  
    50    25    57 1   
    51    26    58 1   
    52    27    28 1   
    53    27    29 1   
    54    28    59 1   
    55    28    60 1   
    56    28    61 1   
    57    29    62 1   
    58    29    63 1   
    59    29    64 1   
    60    30    31 2   
    61    30    32 1   
    62    32    33 1   
    63    32    37 1   
    64    32    70 1   
    65    33    34 1   
    66    33    65 1   
    67    33    75 1   
    68    34    35 1   
    69    34    66 1   
    70    34    74 1   
    71    35    36 1   
    72    35    67 1   
    73    35    73 1   
    74    36    37 1   
    75    36    68 1   
    76    36    72 1   
    77    37    69 1   
    78    37    71 1   
@<TRIPOS>SUBSTRUCTURE
     1 FEX         1 TEMP              0 ****  ****    0 ROOT
