@<TRIPOS>MOLECULE
FF0
   48    49     1     0     0
SMALL
abcg2


@<TRIPOS>ATOM
      1 N11         -0.9350    -0.0530    -0.1390 n7         1 FF0      -0.857400
      2 C12         -1.9940    -0.1750     0.8420 c3         1 FF0       0.161800
      3 C13         -3.3620    -0.1070     0.1800 c3         1 FF0      -0.079400
      4 C14         -4.5040    -0.1460     1.1960 c3         1 FF0      -0.030100
      5 C16          0.3940    -0.1290     0.4340 c3         1 FF0       0.130800
      6 C17          1.4620     0.2670    -0.5800 c3         1 FF0       0.175300
      7 O18          1.3180     1.6120    -0.9800 oh         1 FF0      -0.642000
      8 C19          2.8730    -0.0560    -0.0590 c3         1 FF0       0.130500
      9 N20          3.0110    -1.5020     0.0040 n8         1 FF0      -1.000200
     10 C32          3.9620     0.6420    -0.8980 c3         1 FF0      -0.065100
     11 C33          6.0930    -0.7040    -1.0340 ca         1 FF0      -0.111500
     12 C34          7.3540    -1.0450    -0.5610 ca         1 FF0      -0.107000
     13 C35          7.8860    -0.3910     0.5420 ca         1 FF0      -0.110000
     14 C36          7.1470     0.6080     1.1660 ca         1 FF0      -0.107000
     15 C37          5.8890     0.9450     0.6880 ca         1 FF0      -0.111500
     16 C38          5.3420     0.2960    -0.4190 ca         1 FF0      -0.088300
     17 C40         -5.8500    -0.0890     0.5300 ca         1 FF0      -0.077300
     18 C41         -6.5150    -1.2580     0.1640 ca         1 FF0      -0.107000
     19 C42         -7.7370    -1.2080    -0.4950 ca         1 FF0      -0.109500
     20 C43         -8.3160     0.0170    -0.8010 ca         1 FF0      -0.112000
     21 C44         -7.6630     1.1890    -0.4400 ca         1 FF0      -0.109500
     22 C45         -6.4420     1.1330     0.2180 ca         1 FF0      -0.107000
     23 H12         -1.9270    -1.1000     1.4400 h1         1 FF0       0.025700
     24 H12A        -1.8960     0.6520     1.5530 h1         1 FF0       0.025700
     25 H13         -3.4290     0.8110    -0.4120 hc         1 FF0       0.051200
     26 H13A        -3.4740    -0.9400    -0.5210 hc         1 FF0       0.051200
     27 H14         -4.4260    -1.0580     1.7960 hc         1 FF0       0.045200
     28 H14A        -4.3960     0.6930     1.8890 hc         1 FF0       0.045200
     29 H16          0.4430     0.5690     1.2800 h1         1 FF0       0.041700
     30 H16A         0.6360    -1.1190     0.8410 h1         1 FF0       0.041700
     31 H17          1.3150    -0.3210    -1.4960 h1         1 FF0       0.070700
     32 HO18         1.3380     2.1680    -0.1940 ho         1 FF0       0.437000
     33 H19          2.9570     0.3160     0.9710 h1         1 FF0       0.055700
     34 HN20         3.0690    -1.8790    -0.9360 hn         1 FF0       0.399500
     35 H32          3.8460     0.3480    -1.9460 hc         1 FF0       0.060700
     36 H32A         3.8230     1.7240    -0.8550 hc         1 FF0       0.060700
     37 H34          7.9230    -1.8220    -1.0560 ha         1 FF0       0.113000
     38 H35          8.8690    -0.6530     0.9100 ha         1 FF0       0.114000
     39 H36          7.5540     1.1270     2.0250 ha         1 FF0       0.113000
     40 H37          5.3210     1.7280     1.1790 ha         1 FF0       0.110000
     41 H41         -6.0740    -2.2190     0.4000 ha         1 FF0       0.110000
     42 H42         -8.2390    -2.1290    -0.7650 ha         1 FF0       0.111000
     43 H43         -9.2680     0.0580    -1.3130 ha         1 FF0       0.111000
     44 H44         -8.1070     2.1490    -0.6680 ha         1 FF0       0.111000
     45 H45         -5.9420     2.0550     0.4960 ha         1 FF0       0.110000
     46 H2          -1.0370    -0.7950    -0.8220 hn         1 FF0       0.408000
     47 H1           3.8850    -1.7480     0.4520 hn         1 FF0       0.399500
     48 H33          5.6900    -1.2180    -1.8990 ha         1 FF0       0.110000
@<TRIPOS>BOND
     1     1     2 1   
     2     1     5 1   
     3     1    46 1   
     4     2     3 1   
     5     2    23 1   
     6     2    24 1   
     7     3     4 1   
     8     3    25 1   
     9     3    26 1   
    10     4    17 1   
    11     4    27 1   
    12     4    28 1   
    13     5     6 1   
    14     5    29 1   
    15     5    30 1   
    16     6     7 1   
    17     6     8 1   
    18     6    31 1   
    19     7    32 1   
    20     8     9 1   
    21     8    10 1   
    22     8    33 1   
    23     9    34 1   
    24     9    47 1   
    25    10    16 1   
    26    10    35 1   
    27    10    36 1   
    28    11    12 ar  
    29    11    16 ar  
    30    11    48 1   
    31    12    13 ar  
    32    12    37 1   
    33    13    14 ar  
    34    13    38 1   
    35    14    15 ar  
    36    14    39 1   
    37    15    16 ar  
    38    15    40 1   
    39    17    18 ar  
    40    17    22 ar  
    41    18    19 ar  
    42    18    41 1   
    43    19    20 ar  
    44    19    42 1   
    45    20    21 ar  
    46    20    43 1   
    47    21    22 ar  
    48    21    44 1   
    49    22    45 1   
@<TRIPOS>SUBSTRUCTURE
     1 FF0         1 TEMP              0 ****  ****    0 ROOT
