@<TRIPOS>MOLECULE
FF0
   48    49     1     0     0
SMALL
No Charge or Current Charge


@<TRIPOS>ATOM
      1 N11         -0.9600    -0.4460    -0.1380 n7         1 FF0      -0.857400
      2 C12         -2.0450    -0.5990     0.8460 c3         1 FF0       0.161800
      3 C13         -3.3930    -0.2070     0.2130 c3         1 FF0      -0.079400
      4 C14         -4.5780    -0.3350     1.1940 c3         1 FF0      -0.030100
      5 C16          0.4010    -0.7800     0.3710 c3         1 FF0       0.130800
      6 C17          1.4880    -0.3780    -0.6660 c3         1 FF0       0.175300
      7 O18          1.0620     0.8730    -1.2210 oh         1 FF0      -0.642000
      8 C19          2.9290    -0.2760    -0.0570 c3         1 FF0       0.130500
      9 N20          3.3630    -1.5440     0.5830 n8         1 FF0      -1.000200
     10 C32          3.9970     0.1720    -1.0910 c3         1 FF0      -0.065100
     11 C33          6.4180    -0.6180    -0.9370 ca         1 FF0      -0.111500
     12 C34          7.7160    -0.5240    -0.4040 ca         1 FF0      -0.107000
     13 C35          8.0130     0.4580     0.5560 ca         1 FF0      -0.110000
     14 C36          7.0120     1.3480     0.9800 ca         1 FF0      -0.107000
     15 C37          5.7150     1.2540     0.4470 ca         1 FF0      -0.111500
     16 C38          5.4080     0.2690    -0.5130 ca         1 FF0      -0.088300
     17 C40         -5.9020     0.0550     0.5500 ca         1 FF0      -0.077300
     18 C41         -6.6930    -0.9170    -0.0930 ca         1 FF0      -0.107000
     19 C42         -7.9130    -0.5560    -0.6920 ca         1 FF0      -0.109500
     20 C43         -8.3480     0.7790    -0.6510 ca         1 FF0      -0.112000
     21 C44         -7.5620     1.7530    -0.0120 ca         1 FF0      -0.109500
     22 C45         -6.3420     1.3920     0.5860 ca         1 FF0      -0.107000
     23 H12         -2.0980    -1.6380     1.1960 h1         1 FF0       0.025700
     24 H12A        -1.8590     0.0430     1.7180 h1         1 FF0       0.025700
     25 H13         -3.3370     0.8270    -0.1470 hc         1 FF0       0.051200
     26 H13A        -3.5830    -0.8430    -0.6610 hc         1 FF0       0.051200
     27 H14         -4.6290    -1.3670     1.5640 hc         1 FF0       0.045200
     28 H14A        -4.3870     0.2950     2.0720 hc         1 FF0       0.045200
     29 H16          0.5950    -0.2330     1.3040 h1         1 FF0       0.041700
     30 H16A         0.4840    -1.8520     0.5950 h1         1 FF0       0.041700
     31 H17          1.4970    -1.1430    -1.4550 h1         1 FF0       0.070700
     32 HO18         0.1000     0.8730    -0.9890 ho         1 FF0       0.437000
     33 H19          2.8940     0.4860     0.7350 h1         1 FF0       0.055700
     34 HN20         3.4710    -2.2640    -0.1400 hn         1 FF0       0.399500
     35 H32          3.9790    -0.5160    -1.9460 hc         1 FF0       0.060700
     36 H32A         3.7130     1.1520    -1.4940 hc         1 FF0       0.060700
     37 H34          8.4900    -1.2130    -0.7340 ha         1 FF0       0.113000
     38 H35          9.0170     0.5310     0.9680 ha         1 FF0       0.114000
     39 H36          7.2410     2.1110     1.7210 ha         1 FF0       0.113000
     40 H37          4.9470     1.9500     0.7790 ha         1 FF0       0.110000
     41 H41         -6.3620    -1.9530    -0.1320 ha         1 FF0       0.110000
     42 H42         -8.5200    -1.3110    -1.1870 ha         1 FF0       0.111000
     43 H43         -9.2920     1.0580    -1.1140 ha         1 FF0       0.111000
     44 H44         -7.8980     2.7880     0.0190 ha         1 FF0       0.111000
     45 H45         -5.7390     2.1530     1.0760 ha         1 FF0       0.110000
     46 H2          -1.1690    -1.0680    -0.9320 hn         1 FF0       0.408000
     47 H1           4.3250    -1.4130     0.9190 hn         1 FF0       0.399500
     48 H33          6.2000    -1.3820    -1.6800 ha         1 FF0       0.110000
@<TRIPOS>BOND
     1     1     2 1   
     2     1     5 1   
     3     1    46 1   
     4     2     3 1   
     5     2    23 1   
     6     2    24 1   
     7     3     4 1   
     8     3    25 1   
     9     3    26 1   
    10     4    17 1   
    11     4    27 1   
    12     4    28 1   
    13     5     6 1   
    14     5    29 1   
    15     5    30 1   
    16     6     7 1   
    17     6     8 1   
    18     6    31 1   
    19     7    32 1   
    20     8     9 1   
    21     8    10 1   
    22     8    33 1   
    23     9    34 1   
    24     9    47 1   
    25    10    16 1   
    26    10    35 1   
    27    10    36 1   
    28    11    12 ar  
    29    11    16 ar  
    30    11    48 1   
    31    12    13 ar  
    32    12    37 1   
    33    13    14 ar  
    34    13    38 1   
    35    14    15 ar  
    36    14    39 1   
    37    15    16 ar  
    38    15    40 1   
    39    17    18 ar  
    40    17    22 ar  
    41    18    19 ar  
    42    18    41 1   
    43    19    20 ar  
    44    19    42 1   
    45    20    21 ar  
    46    20    43 1   
    47    21    22 ar  
    48    21    44 1   
    49    22    45 1   
@<TRIPOS>SUBSTRUCTURE
     1 FF0         1 TEMP              0 ****  ****    0 ROOT
