@<TRIPOS>MOLECULE
FF1
   69    73     1     0     0
SMALL
No Charge or Current Charge


@<TRIPOS>ATOM
      1 O2           1.5230    -0.3770     1.3600 o          1 FF1      -0.590100
      2 C22          2.6890    -0.6590     1.1110 c          1 FF1       0.630300
      3 N3           3.1550    -1.9670     1.1500 ns         1 FF1      -0.138000
      4 C23          2.5100    -3.2120     1.4030 ca         1 FF1      -0.074000
      5 C29          1.0990    -3.3570     1.4920 ca         1 FF1      -0.062000
      6 C28          0.5900    -4.6400     1.7380 ca         1 FF1      -0.211900
      7 C27         -0.7580    -5.1310     1.8800 cc         1 FF1       0.345800
      8 N5          -0.7840    -6.4550     2.1060 nd         1 FF1      -0.504100
      9 N4           0.5740    -6.8100     2.1070 na         1 FF1      -0.048400
     10 C26          1.3930    -5.7230     1.8860 ca         1 FF1      -0.057200
     11 C25          2.7860    -5.6310     1.8010 ca         1 FF1      -0.099000
     12 C24          3.3400    -4.3550     1.5540 ca         1 FF1      -0.118000
     13 C21          3.6950     0.4180     0.7650 ce         1 FF1      -0.299400
     14 C19          5.0280     0.2570     0.5440 c2         1 FF1       0.113400
     15 C20          5.8690    -1.0110     0.5580 c3         1 FF1      -0.082900
     16 N2           5.8250     1.3780     0.3010 ns         1 FF1      -0.422100
     17 C18          5.4320     2.6810     0.3870 c          1 FF1       0.610000
     18 O1           6.2070     3.6090     0.2550 o          1 FF1      -0.576000
     19 N1           4.1060     2.8680     0.6380 ns         1 FF1      -0.502900
     20 C17          3.0810     1.8240     0.6660 c6         1 FF1       0.241200
     21 C13          2.2180     1.9690    -0.5940 ca         1 FF1      -0.144300
     22 C12          0.8290     2.1790    -0.4760 ca         1 FF1      -0.062000
     23 C14          2.8000     1.8810    -1.8720 ca         1 FF1      -0.056000
     24 C15          2.0000     2.0160    -3.0160 ca         1 FF1      -0.163000
     25 C16          0.6190     2.2300    -2.8980 ca         1 FF1       0.227000
     26 F           -0.1070     2.3230    -4.0340 f          1 FF1      -0.155000
     27 C11          0.0070     2.3050    -1.6250 ca         1 FF1      -0.197600
     28 C10         -1.4840     2.5140    -1.4910 c          1 FF1       0.619700
     29 O           -2.1740     3.0070    -2.3710 o          1 FF1      -0.585100
     30 N           -2.0300     2.1500    -0.2780 ns         1 FF1      -0.499900
     31 C9          -3.4510     2.2530     0.0690 c3         1 FF1       0.105000
     32 C8          -4.3020     1.1540    -0.6010 c3         1 FF1      -0.062100
     33 C7          -5.7790     1.2330    -0.1840 ca         1 FF1      -0.073300
     34 C1          -6.2470     0.5090     0.9480 ca         1 FF1      -0.067300
     35 C           -5.3230    -0.3750     1.7840 c3         1 FF1      -0.051300
     36 C5          -6.6910     2.0420    -0.9170 ca         1 FF1      -0.067300
     37 C6          -6.2570     2.8500    -2.1400 c3         1 FF1      -0.051300
     38 C4          -8.0400     2.1110    -0.5190 ca         1 FF1      -0.115500
     39 C3          -8.4940     1.3920     0.5930 ca         1 FF1      -0.104000
     40 C2          -7.6020     0.5960     1.3220 ca         1 FF1      -0.115500
     41 H1           4.1390    -2.0590     0.9530 hn         1 FF1       0.154000
     42 H2           0.4140    -2.5220     1.3670 ha         1 FF1       0.151000
     43 H3          -1.7080    -4.6130     1.8330 h4         1 FF1       0.050800
     44 H5           3.4190    -6.5080     1.9180 ha         1 FF1       0.124000
     45 H6           4.4210    -4.2550     1.4820 ha         1 FF1       0.113000
     46 H7           5.5280    -1.7210    -0.2050 hc         1 FF1       0.064700
     47 H8           6.9280    -0.8150     0.3510 hc         1 FF1       0.064700
     48 H9           5.8280    -1.5030     1.5380 hc         1 FF1       0.064700
     49 H10          6.8090     1.2410     0.1120 hn         1 FF1       0.337500
     50 H11          3.8050     3.8320     0.7040 hn         1 FF1       0.338500
     51 H12          2.4600     2.0080     1.5570 h1         1 FF1       0.092700
     52 H13          0.4030     2.2520     0.5210 ha         1 FF1       0.126000
     53 H14          3.8690     1.7100    -1.9800 ha         1 FF1       0.126000
     54 H15          2.4500     1.9480    -4.0030 ha         1 FF1       0.139000
     55 H16         -1.4020     1.7290     0.3940 hn         1 FF1       0.316500
     56 H17         -3.5470     2.1750     1.1600 h1         1 FF1       0.060200
     57 H18         -3.8200     3.2440    -0.2250 h1         1 FF1       0.060200
     58 H19         -4.1980     1.2300    -1.6890 hc         1 FF1       0.057700
     59 H20         -3.8740     0.1760    -0.3550 hc         1 FF1       0.057700
     60 H21         -4.4340     0.1730     2.1180 hc         1 FF1       0.043367
     61 H22         -5.8230    -0.7510     2.6850 hc         1 FF1       0.043367
     62 H23         -4.9900    -1.2490     1.2120 hc         1 FF1       0.043367
     63 H24         -5.9690     2.1890    -2.9670 hc         1 FF1       0.043367
     64 H25         -7.0630     3.4960    -2.5090 hc         1 FF1       0.043367
     65 H26         -5.4050     3.5010    -1.9120 hc         1 FF1       0.043367
     66 H27         -8.7440     2.7250    -1.0760 ha         1 FF1       0.109500
     67 H28         -9.5390     1.4520     0.8910 ha         1 FF1       0.112000
     68 H29         -7.9690     0.0430     2.1830 ha         1 FF1       0.109500
     69 H4           0.8750    -7.7720     2.2570 hn         1 FF1       0.379000
@<TRIPOS>BOND
     1     1     2 2   
     2     2     3 1   
     3     2    13 1   
     4     3     4 1   
     5     3    41 1   
     6     4     5 ar  
     7     4    12 ar  
     8     5     6 ar  
     9     5    42 1   
    10     6     7 1   
    11     6    10 ar  
    12     7     8 2   
    13     7    43 1   
    14     8     9 1   
    15     9    10 1   
    16     9    69 1   
    17    10    11 ar  
    18    11    12 ar  
    19    11    44 1   
    20    12    45 1   
    21    13    14 2   
    22    13    20 1   
    23    14    15 1   
    24    14    16 1   
    25    15    46 1   
    26    15    47 1   
    27    15    48 1   
    28    16    17 1   
    29    16    49 1   
    30    17    18 2   
    31    17    19 1   
    32    19    20 1   
    33    19    50 1   
    34    20    21 1   
    35    20    51 1   
    36    21    22 ar  
    37    21    23 ar  
    38    22    27 ar  
    39    22    52 1   
    40    23    24 ar  
    41    23    53 1   
    42    24    25 ar  
    43    24    54 1   
    44    25    26 1   
    45    25    27 ar  
    46    27    28 1   
    47    28    29 2   
    48    28    30 1   
    49    30    31 1   
    50    30    55 1   
    51    31    32 1   
    52    31    56 1   
    53    31    57 1   
    54    32    33 1   
    55    32    58 1   
    56    32    59 1   
    57    33    34 ar  
    58    33    36 ar  
    59    34    35 1   
    60    34    40 ar  
    61    35    60 1   
    62    35    61 1   
    63    35    62 1   
    64    36    37 1   
    65    36    38 ar  
    66    37    63 1   
    67    37    64 1   
    68    37    65 1   
    69    38    39 ar  
    70    38    66 1   
    71    39    40 ar  
    72    39    67 1   
    73    40    68 1   
@<TRIPOS>SUBSTRUCTURE
     1 FF1         1 TEMP              0 ****  ****    0 ROOT
