@<TRIPOS>MOLECULE
FF1
   69    73     1     0     0
SMALL
abcg2


@<TRIPOS>ATOM
      1 O2           1.7500     0.3560     2.5210 o          1 FF1      -0.590100
      2 C22          2.2580    -0.0250     1.4770 c          1 FF1       0.630300
      3 N3           1.7240    -0.9870     0.6860 ns         1 FF1      -0.138000
      4 C23          0.5050    -1.6680     0.8370 ca         1 FF1      -0.074000
      5 C29         -0.2480    -1.6760     1.9940 ca         1 FF1      -0.062000
      6 C28         -1.4620    -2.3770     1.9790 ca         1 FF1      -0.211900
      7 C27         -2.4970    -2.6130     2.9230 cc         1 FF1       0.345800
      8 N5          -3.4510    -3.3390     2.3960 nd         1 FF1      -0.504100
      9 N4          -3.0880    -3.6050     1.1430 na         1 FF1      -0.048400
     10 C26         -1.8960    -3.0490     0.8270 ca         1 FF1      -0.057200
     11 C25         -1.1210    -3.0700    -0.3370 ca         1 FF1      -0.099000
     12 C24          0.0610    -2.3750    -0.3110 ca         1 FF1      -0.118000
     13 C21          3.4810     0.6250     0.9410 ce         1 FF1      -0.299400
     14 C19          4.5950    -0.0130     0.5570 c2         1 FF1       0.113400
     15 C20          4.8290    -1.4890     0.5500 c3         1 FF1      -0.082900
     16 N2           5.6850     0.7310     0.1380 ns         1 FF1      -0.422100
     17 C18          5.8540     2.0660     0.4220 c          1 FF1       0.610000
     18 O1           6.9290     2.6240     0.2660 o          1 FF1      -0.576000
     19 N1           4.7530     2.6780     0.9100 ns         1 FF1      -0.502900
     20 C17          3.4200     2.1330     0.8480 c6         1 FF1       0.241200
     21 C13          2.6600     2.5250    -0.4130 ca         1 FF1      -0.144300
     22 C12          1.2910     2.2800    -0.4750 ca         1 FF1      -0.062000
     23 C14          3.2830     3.0620    -1.5310 ca         1 FF1      -0.056000
     24 C15          2.5630     3.3350    -2.6870 ca         1 FF1      -0.163000
     25 C16          1.2170     3.0430    -2.7260 ca         1 FF1       0.227000
     26 F            0.5350     3.3100    -3.8450 f          1 FF1      -0.155000
     27 C11          0.5510     2.5140    -1.6280 ca         1 FF1      -0.197600
     28 C10         -0.8780     2.0780    -1.7090 c          1 FF1       0.619700
     29 O           -1.2990     1.4720    -2.6830 o          1 FF1      -0.585100
     30 N           -1.6250     2.3570    -0.6290 ns         1 FF1      -0.499900
     31 C9          -2.9100     1.7360    -0.3930 c3         1 FF1       0.105000
     32 C8          -2.7600     0.3170     0.1670 c3         1 FF1      -0.062100
     33 C7          -4.0850    -0.3740     0.3350 ca         1 FF1      -0.073300
     34 C1          -4.7910    -0.2700     1.5410 ca         1 FF1      -0.067300
     35 C           -4.2450     0.5120     2.7040 c3         1 FF1      -0.051300
     36 C5          -4.6300    -1.1030    -0.7320 ca         1 FF1      -0.067300
     37 C6          -3.8990    -1.2410    -2.0390 c3         1 FF1      -0.051300
     38 C4          -5.8620    -1.7320    -0.5730 ca         1 FF1      -0.115500
     39 C3          -6.5550    -1.6420     0.6230 ca         1 FF1      -0.104000
     40 C2          -6.0190    -0.9120     1.6710 ca         1 FF1      -0.115500
     41 H1           2.1760    -1.1190    -0.2050 hn         1 FF1       0.154000
     42 H2           0.0720    -1.1640     2.8870 ha         1 FF1       0.151000
     43 H3          -2.5630    -2.2770     3.9460 h4         1 FF1       0.050800
     44 H5          -1.4290    -3.6060    -1.2240 ha         1 FF1       0.124000
     45 H6           0.6770    -2.3630    -1.2020 ha         1 FF1       0.113000
     46 H7           4.9100    -1.8570    -0.4750 hc         1 FF1       0.064700
     47 H8           5.7680    -1.7210     1.0540 hc         1 FF1       0.064700
     48 H9           4.0370    -2.0410     1.0470 hc         1 FF1       0.064700
     49 H10          6.5240     0.2370    -0.1260 hn         1 FF1       0.337500
     50 H11          4.8480     3.6590     1.1200 hn         1 FF1       0.338500
     51 H12          2.8730     2.5210     1.7110 h1         1 FF1       0.092700
     52 H13          0.7800     1.8750     0.3910 ha         1 FF1       0.126000
     53 H14          4.3400     3.2920    -1.5200 ha         1 FF1       0.126000
     54 H15          3.0490     3.7680    -3.5510 ha         1 FF1       0.139000
     55 H16         -1.2180     2.8900     0.1220 hn         1 FF1       0.316500
     56 H17         -3.4580     2.3670     0.3070 h1         1 FF1       0.060200
     57 H18         -3.4830     1.7270    -1.3200 h1         1 FF1       0.060200
     58 H19         -2.1140    -0.2610    -0.4960 hc         1 FF1       0.057700
     59 H20         -2.2330     0.3720     1.1200 hc         1 FF1       0.057700
     60 H21         -4.0720     1.5600     2.4530 hc         1 FF1       0.043367
     61 H22         -4.9360     0.4910     3.5450 hc         1 FF1       0.043367
     62 H23         -3.2930     0.1060     3.0510 hc         1 FF1       0.043367
     63 H24         -3.0240    -1.8870    -1.9370 hc         1 FF1       0.043367
     64 H25         -4.5420    -1.6840    -2.7980 hc         1 FF1       0.043367
     65 H26         -3.5360    -0.2870    -2.4230 hc         1 FF1       0.043367
     66 H27         -6.2810    -2.2970    -1.3970 ha         1 FF1       0.109500
     67 H28         -7.5120    -2.1360     0.7370 ha         1 FF1       0.112000
     68 H29         -6.5610    -0.8390     2.6070 ha         1 FF1       0.109500
     69 H4          -3.7090    -4.1210     0.5430 hn         1 FF1       0.379000
@<TRIPOS>BOND
     1     1     2 2   
     2     2     3 1   
     3     2    13 1   
     4     3     4 1   
     5     3    41 1   
     6     4     5 ar  
     7     4    12 ar  
     8     5     6 ar  
     9     5    42 1   
    10     6     7 1   
    11     6    10 ar  
    12     7     8 2   
    13     7    43 1   
    14     8     9 1   
    15     9    10 1   
    16     9    69 1   
    17    10    11 ar  
    18    11    12 ar  
    19    11    44 1   
    20    12    45 1   
    21    13    14 2   
    22    13    20 1   
    23    14    15 1   
    24    14    16 1   
    25    15    46 1   
    26    15    47 1   
    27    15    48 1   
    28    16    17 1   
    29    16    49 1   
    30    17    18 2   
    31    17    19 1   
    32    19    20 1   
    33    19    50 1   
    34    20    21 1   
    35    20    51 1   
    36    21    22 ar  
    37    21    23 ar  
    38    22    27 ar  
    39    22    52 1   
    40    23    24 ar  
    41    23    53 1   
    42    24    25 ar  
    43    24    54 1   
    44    25    26 1   
    45    25    27 ar  
    46    27    28 1   
    47    28    29 2   
    48    28    30 1   
    49    30    31 1   
    50    30    55 1   
    51    31    32 1   
    52    31    56 1   
    53    31    57 1   
    54    32    33 1   
    55    32    58 1   
    56    32    59 1   
    57    33    34 ar  
    58    33    36 ar  
    59    34    35 1   
    60    34    40 ar  
    61    35    60 1   
    62    35    61 1   
    63    35    62 1   
    64    36    37 1   
    65    36    38 ar  
    66    37    63 1   
    67    37    64 1   
    68    37    65 1   
    69    38    39 ar  
    70    38    66 1   
    71    39    40 ar  
    72    39    67 1   
    73    40    68 1   
@<TRIPOS>SUBSTRUCTURE
     1 FF1         1 TEMP              0 ****  ****    0 ROOT
