@<TRIPOS>MOLECULE
FF2
   20    21     1     0     0
SMALL
No Charge or Current Charge


@<TRIPOS>ATOM
      1 O01          2.8690    -1.8570     0.0240 o          1 FF2      -0.544100
      2 C02          2.6510    -0.6510    -0.0010 c          1 FF2       0.631300
      3 N03          3.6740     0.2920    -0.0250 ns         1 FF2      -0.370400
      4 O04          5.0460    -0.0980    -0.2880 oh         1 FF2      -0.433100
      5 C05          1.2910    -0.0640     0.0000 cc         1 FF2      -0.150600
      6 C06          0.1280    -0.8140     0.0240 cd         1 FF2      -0.083200
      7 C07         -1.0890    -0.0340     0.0230 ca         1 FF2      -0.089800
      8 C08         -2.4160    -0.4990     0.0440 ca         1 FF2       0.164000
      9 Cl1         -2.7780    -2.2220     0.0760 cl         1 FF2      -0.184000
     10 C10         -3.4620     0.4440     0.0380 ca         1 FF2      -0.110000
     11 C11         -3.1720     1.8260     0.0120 ca         1 FF2      -0.082000
     12 C12         -1.8340     2.2710    -0.0090 ca         1 FF2      -0.086000
     13 C13         -0.8040     1.3180    -0.0030 ca         1 FF2      -0.144000
     14 S14          0.9450     1.6900    -0.0260 ss         1 FF2       0.080400
     15 H1           3.4440     1.2680    -0.1950 hn         1 FF2       0.331500
     16 H2           5.5550     0.3350     0.4380 ho         1 FF2       0.453000
     17 H3           0.1360    -1.9020     0.0430 ha         1 FF2       0.233000
     18 H4          -4.4940     0.1050     0.0540 ha         1 FF2       0.133000
     19 H5          -3.9840     2.5510     0.0070 ha         1 FF2       0.122000
     20 H6          -1.6060     3.3350    -0.0290 ha         1 FF2       0.128000
@<TRIPOS>BOND
     1     1     2 2   
     2     2     3 1   
     3     2     5 1   
     4     3     4 1   
     5     3    15 1   
     6     4    16 1   
     7     5     6 2   
     8     5    14 1   
     9     6     7 1   
    10     6    17 1   
    11     7     8 ar  
    12     7    13 ar  
    13     8     9 1   
    14     8    10 ar  
    15    10    11 ar  
    16    10    18 1   
    17    11    12 ar  
    18    11    19 1   
    19    12    13 ar  
    20    12    20 1   
    21    13    14 1   
@<TRIPOS>SUBSTRUCTURE
     1 FF2         1 TEMP              0 ****  ****    0 ROOT
