@<TRIPOS>MOLECULE
FF2
   20    21     1     0     0
SMALL
abcg2


@<TRIPOS>ATOM
      1 O01          2.8880    -1.7180     0.4560 o          1 FF2      -0.544100
      2 C02          2.6550    -0.5710     0.1300 c          1 FF2       0.631300
      3 N03          3.6040     0.3370    -0.1950 ns         1 FF2      -0.370400
      4 O04          4.8880    -0.1010    -0.3290 oh         1 FF2      -0.433100
      5 C05          1.2730    -0.0390     0.1010 cc         1 FF2      -0.150600
      6 C06          0.1650    -0.8180     0.0480 cd         1 FF2      -0.083200
      7 C07         -1.0390    -0.0530     0.0300 ca         1 FF2      -0.089800
      8 C08         -2.3730    -0.4770    -0.0270 ca         1 FF2       0.164000
      9 CL1         -2.7160    -2.1690    -0.0970 cl         1 FF2      -0.184000
     10 C10         -3.4010     0.4380    -0.0270 ca         1 FF2      -0.110000
     11 C11         -3.1160     1.8080     0.0290 ca         1 FF2      -0.082000
     12 C12         -1.8180     2.2710     0.0850 ca         1 FF2      -0.086000
     13 C13         -0.7910     1.3310     0.0830 ca         1 FF2      -0.144000
     14 S14          0.9040     1.6590     0.1580 ss         1 FF2       0.080400
     15 H1           3.3900     1.1290    -0.7870 hn         1 FF2       0.331500
     16 H2           5.3550     0.2160     0.4550 ho         1 FF2       0.453000
     17 H3           0.2020    -1.8970     0.0130 ha         1 FF2       0.233000
     18 H4          -4.4280     0.1030    -0.0720 ha         1 FF2       0.133000
     19 H5          -3.9350     2.5140     0.0280 ha         1 FF2       0.122000
     20 H6          -1.6070     3.3310     0.1280 ha         1 FF2       0.128000
@<TRIPOS>BOND
     1     1     2 2   
     2     2     3 1   
     3     2     5 1   
     4     3     4 1   
     5     3    15 1   
     6     4    16 1   
     7     5     6 2   
     8     5    14 1   
     9     6     7 1   
    10     6    17 1   
    11     7     8 ar  
    12     7    13 ar  
    13     8     9 1   
    14     8    10 ar  
    15    10    11 ar  
    16    10    18 1   
    17    11    12 ar  
    18    11    19 1   
    19    12    13 ar  
    20    12    20 1   
    21    13    14 1   
@<TRIPOS>SUBSTRUCTURE
     1 FF2         1 TEMP              0 ****  ****    0 ROOT
