@<TRIPOS>MOLECULE
FF3
   17    17     1     0     0
SMALL
bcc


@<TRIPOS>ATOM
      1 N4           4.3070    -0.4770     0.0520 nv         1 FF3      -0.949500
      2 C1           2.9780    -0.4250     0.0030 cc         1 FF3       0.687300
      3 S1           2.0950     1.0480     0.2730 ss         1 FF3      -0.251800
      4 N1           2.2120    -1.4540    -0.2730 nd         1 FF3      -0.412000
      5 N2           0.9160    -1.1330    -0.2930 nd         1 FF3      -0.254000
      6 C2           0.6750     0.1010    -0.0360 cc         1 FF3       0.293700
      7 C3          -0.6850     0.6870    -0.0150 c3         1 FF3       0.339100
      8 F1          -0.8630     1.4150     1.1040 f          1 FF3      -0.210800
      9 F2          -0.8810     1.5120    -1.0620 f          1 FF3      -0.210800
     10 S2          -2.0240    -0.5890    -0.0630 s6         1 FF3       1.247900
     11 O1          -1.8530    -1.3790     1.1370 o          1 FF3      -0.562300
     12 O2          -1.9870    -1.1630    -1.3910 o          1 FF3      -0.562300
     13 N3          -3.3380     0.3450     0.0790 n8         1 FF3      -0.968700
     14 HN41         4.8560     0.2860     0.4080 hn         1 FF3       0.450300
     15 HN42         4.7540    -1.3780    -0.0020 hn         1 FF3       0.450300
     16 HN31        -3.9220     0.4420    -0.7400 hn         1 FF3       0.457800
     17 HN32        -3.8210     0.3320     0.9670 hn         1 FF3       0.457800
@<TRIPOS>BOND
     1     1     2 1   
     2     1    14 1   
     3     1    15 1   
     4     2     3 1   
     5     2     4 2   
     6     3     6 1   
     7     4     5 1   
     8     5     6 2   
     9     6     7 1   
    10     7     8 1   
    11     7     9 1   
    12     7    10 1   
    13    10    11 2   
    14    10    12 2   
    15    10    13 1   
    16    13    16 1   
    17    13    17 1   
@<TRIPOS>SUBSTRUCTURE
     1 FF3         1 TEMP              0 ****  ****    0 ROOT
