@<TRIPOS>MOLECULE
FF3
   17    17     1     0     0
SMALL
No Charge or Current Charge


@<TRIPOS>ATOM
      1 N4           4.1700    -0.6530     0.4020 nv         1 FF3      -1.059900
      2 C1           2.9220    -0.3860    -0.0180 cc         1 FF3       0.687300
      3 S1           1.8210     0.5650     0.9060 ss         1 FF3      -0.251800
      4 N1           2.4790    -0.8580    -1.1610 nd         1 FF3      -0.412000
      5 N2           1.1720    -0.4650    -1.3910 nd         1 FF3      -0.254000
      6 C2           0.6960     0.2790    -0.3980 cc         1 FF3       0.293700
      7 C3          -0.6970     0.8580    -0.3800 c3         1 FF3      -0.014300
      8 F1          -0.7620     1.9440     0.4330 f          1 FF3      -0.089500
      9 F2          -1.0570     1.2930    -1.6160 f          1 FF3      -0.089500
     10 S2          -1.8640    -0.4220     0.1960 s6         1 FF3       1.217100
     11 O1          -1.6070    -0.7690     1.5930 o          1 FF3      -0.491500
     12 O2          -2.0280    -1.4740    -0.8060 o          1 FF3      -0.491500
     13 N3          -3.3100     0.3600     0.2190 n8         1 FF3      -1.079100
     14 HN41         4.3490    -0.5460     1.3950 hn         1 FF3       0.505500
     15 HN42         4.6380    -1.4270    -0.0570 hn         1 FF3       0.505500
     16 HN31        -3.8790    -0.2800    -0.3330 hn         1 FF3       0.513000
     17 HN32        -3.6240     0.1490     1.1650 hn         1 FF3       0.513000
@<TRIPOS>BOND
     1     1     2 1   
     2     1    14 1   
     3     1    15 1   
     4     2     3 1   
     5     2     4 2   
     6     3     6 1   
     7     4     5 1   
     8     5     6 2   
     9     6     7 1   
    10     7     8 1   
    11     7     9 1   
    12     7    10 1   
    13    10    11 2   
    14    10    12 2   
    15    10    13 1   
    16    13    16 1   
    17    13    17 1   
@<TRIPOS>SUBSTRUCTURE
     1 FF3         1 TEMP              0 ****  ****    0 ROOT
