@<TRIPOS>MOLECULE
FF4
   42    43     1     0     0
SMALL
abcg2


@<TRIPOS>ATOM
      1 C4          -5.1760    -2.9970     0.1550 cc         1 FF4       0.738500
      2 N4          -5.4710    -4.1910     0.6660 nv         1 FF4      -1.064200
      3 C5          -5.2300    -2.8010    -1.2590 cc         1 FF4      -0.499600
      4 C6          -4.9200    -1.5670    -1.7010 cd         1 FF4      -0.051400
      5 N3          -4.8400    -2.0280     0.9820 nd         1 FF4      -0.796100
      6 C2          -4.5300    -0.7950     0.5280 c          1 FF4       0.727400
      7 O2          -4.2080     0.1160     1.2770 o          1 FF4      -0.559000
      8 N1          -4.5880    -0.5620    -0.8560 n          1 FF4      -0.314000
      9 C1          -4.2260     0.7370    -1.4140 c5         1 FF4       0.346700
     10 C9          -4.9920     1.9470    -0.8710 c5         1 FF4      -0.145400
     11 C3          -3.9470     2.7690    -0.1170 c5         1 FF4       0.118300
     12 O3          -4.0480     4.1610    -0.2990 oh         1 FF4      -0.713000
     13 O4          -2.8630     0.9710    -1.2020 os         1 FF4      -0.385000
     14 C7          -2.6320     2.2860    -0.7300 c5         1 FF4       0.172300
     15 C8          -1.4860     2.2830     0.2540 c3         1 FF4       0.235600
     16 O5          -0.3050     1.9030    -0.4120 os         1 FF4      -0.560400
     17 PA           1.1180     2.0170     0.4250 p5         1 FF4       1.459800
     18 O1A          1.0230     1.1780     1.6640 o          1 FF4      -0.871000
     19 O2A          1.4880     3.4660     0.5430 o          1 FF4      -0.871000
     20 O3A          1.9960     1.3090    -0.7410 os         1 FF4      -0.710800
     21 PB           3.4060     0.4090    -0.5550 p5         1 FF4       1.507400
     22 O1B          3.9400     0.3350    -1.9580 o          1 FF4      -0.857500
     23 O2B          4.2170     1.0350     0.5430 o          1 FF4      -0.857500
     24 C3B          2.7400    -1.2010    -0.0160 c3         1 FF4      -0.424700
     25 F4B          1.9720    -1.6930    -1.1060 f          1 FF4      -0.294000
     26 PG           3.9990    -2.4880     0.5100 p5         1 FF4       1.298500
     27 O1G          3.2190    -3.8050     0.4350 o          1 FF4      -0.904167
     28 O2G          5.1540    -2.3940    -0.4890 o          1 FF4      -0.904167
     29 O3G          4.3650    -2.0630     1.9330 o          1 FF4      -0.904167
     30 H1          -5.7260    -4.9660     0.0800 hn         1 FF4       0.474000
     31 H2          -5.4220    -4.3430     1.6590 hn         1 FF4       0.474000
     32 H3          -5.4950    -3.5930    -1.9430 ha         1 FF4       0.162000
     33 H4          -4.9220    -1.3280    -2.7560 h4         1 FF4       0.170000
     34 H5          -4.4220     0.6330    -2.4850 h2         1 FF4       0.020700
     35 H6          -5.3600     2.5300    -1.7170 hc         1 FF4       0.031700
     36 H7          -5.8520     1.6690    -0.2640 hc         1 FF4       0.031700
     37 H8          -3.9750     2.5180     0.9460 h1         1 FF4       0.078700
     38 H9          -4.7530     4.4860     0.2680 ho         1 FF4       0.469000
     39 H10         -2.3810     2.9430    -1.5760 h1         1 FF4       0.051700
     40 H11         -1.4060     3.2930     0.6770 h1         1 FF4       0.021200
     41 H12         -1.7210     1.5980     1.0770 h1         1 FF4       0.021200
     42 H15          2.0400    -1.0290     0.8060 h1         1 FF4       0.077700
@<TRIPOS>BOND
     1     1     2 1   
     2     1     3 1   
     3     1     5 2   
     4     2    30 1   
     5     2    31 1   
     6     3     4 2   
     7     3    32 1   
     8     4     8 1   
     9     4    33 1   
    10     5     6 1   
    11     6     7 2   
    12     6     8 1   
    13     8     9 1   
    14     9    10 1   
    15     9    13 1   
    16     9    34 1   
    17    10    11 1   
    18    10    35 1   
    19    10    36 1   
    20    11    12 1   
    21    11    14 1   
    22    11    37 1   
    23    12    38 1   
    24    13    14 1   
    25    14    15 1   
    26    14    39 1   
    27    15    16 1   
    28    15    40 1   
    29    15    41 1   
    30    16    17 1   
    31    17    18 1   
    32    17    19 1   
    33    17    20 1   
    34    20    21 1   
    35    21    22 1   
    36    21    23 1   
    37    21    24 1   
    38    24    25 1   
    39    24    26 1   
    40    24    42 1   
    41    26    27 1   
    42    26    28 1   
    43    26    29 1   
@<TRIPOS>SUBSTRUCTURE
     1 FF4         1 TEMP              0 ****  ****    0 ROOT
