@<TRIPOS>MOLECULE
FF4
   42    43     1     0     0
SMALL
No Charge or Current Charge


@<TRIPOS>ATOM
      1 C4          -6.3780    -2.2910    -0.6480 cc         1 FF4       0.738500
      2 N4          -7.3490    -3.1800    -0.6240 nv         1 FF4      -1.064200
      3 C5          -5.7620    -1.9910    -1.8750 cc         1 FF4      -0.499600
      4 C6          -4.7420    -1.0720    -1.8800 cd         1 FF4      -0.051400
      5 N3          -6.0660    -1.7720     0.4850 nd         1 FF4      -0.796100
      6 C2          -5.0350    -0.8260     0.5320 c          1 FF4       0.727400
      7 O2          -4.7880    -0.3240     1.6160 o          1 FF4      -0.559000
      8 N1          -4.3670    -0.4850    -0.6740 n          1 FF4      -0.314000
      9 C1          -3.2240     0.4640    -0.6740 c5         1 FF4       0.346700
     10 C9          -3.7940     1.9190    -0.6280 c5         1 FF4      -0.145400
     11 C3          -3.1860     2.4680     0.6940 c5         1 FF4       0.118300
     12 O3          -2.9770     3.8840     0.6350 oh         1 FF4      -0.713000
     13 O4          -2.3470     0.3180     0.4550 os         1 FF4      -0.385000
     14 C7          -1.8670     1.6410     0.7620 c5         1 FF4       0.172300
     15 C8          -1.1580     1.6720     2.1490 c3         1 FF4       0.235600
     16 O5           0.0600     0.8980     2.1690 os         1 FF4      -0.560400
     17 PA           1.3260     1.2500     1.2320 p5         1 FF4       1.459800
     18 O1A          2.5510     0.6810     1.8630 o          1 FF4      -0.871000
     19 O2A          1.4070     2.7270     1.0270 o          1 FF4      -0.871000
     20 O3A          0.8580     0.4630    -0.0450 os         1 FF4      -0.710800
     21 PB           1.9450     0.2420    -1.1760 p5         1 FF4       1.507400
     22 O1B          1.1970     0.2320    -2.4760 o          1 FF4      -0.857500
     23 O2B          3.0150     1.2880    -1.1990 o          1 FF4      -0.857500
     24 C3B          2.4260    -1.4620    -0.7280 c3         1 FF4      -0.424700
     25 F4B          1.5430    -2.4380    -1.1330 f          1 FF4      -0.294000
     26 PG           4.0930    -1.5970    -1.4230 p5         1 FF4       1.298500
     27 O1G          4.4610    -3.0430    -1.3490 o          1 FF4      -0.904167
     28 O2G          4.1460    -1.1630    -2.8480 o          1 FF4      -0.904167
     29 O3G          5.0740    -0.8500    -0.5850 o          1 FF4      -0.904167
     30 H1          -7.3390    -3.8510    -1.3810 hn         1 FF4       0.474000
     31 H2          -7.5490    -3.5470     0.2960 hn         1 FF4       0.474000
     32 H3          -6.0960    -2.4800    -2.7840 ha         1 FF4       0.162000
     33 H4          -4.1800    -0.7490    -2.7550 h4         1 FF4       0.170000
     34 H5          -2.6600     0.3020    -1.6000 h2         1 FF4       0.020700
     35 H6          -3.4490     2.4830    -1.5020 hc         1 FF4       0.031700
     36 H7          -4.8890     1.9630    -0.6270 hc         1 FF4       0.031700
     37 H8          -3.8280     2.2080     1.5490 h1         1 FF4       0.078700
     38 H9          -3.8540     4.2970     0.4620 ho         1 FF4       0.469000
     39 H10         -1.1770     1.9710    -0.0250 h1         1 FF4       0.051700
     40 H11         -0.9450     2.7160     2.4120 h1         1 FF4       0.021200
     41 H12         -1.8550     1.2860     2.9050 h1         1 FF4       0.021200
     42 H15          2.5340    -1.5050     0.3560 h1         1 FF4       0.077700
@<TRIPOS>BOND
     1     1     2 1   
     2     1     3 1   
     3     1     5 2   
     4     2    30 1   
     5     2    31 1   
     6     3     4 2   
     7     3    32 1   
     8     4     8 1   
     9     4    33 1   
    10     5     6 1   
    11     6     7 2   
    12     6     8 1   
    13     8     9 1   
    14     9    10 1   
    15     9    13 1   
    16     9    34 1   
    17    10    11 1   
    18    10    35 1   
    19    10    36 1   
    20    11    12 1   
    21    11    14 1   
    22    11    37 1   
    23    12    38 1   
    24    13    14 1   
    25    14    15 1   
    26    14    39 1   
    27    15    16 1   
    28    15    40 1   
    29    15    41 1   
    30    16    17 1   
    31    17    18 1   
    32    17    19 1   
    33    17    20 1   
    34    20    21 1   
    35    21    22 1   
    36    21    23 1   
    37    21    24 1   
    38    24    25 1   
    39    24    26 1   
    40    24    42 1   
    41    26    27 1   
    42    26    28 1   
    43    26    29 1   
@<TRIPOS>SUBSTRUCTURE
     1 FF4         1 TEMP              0 ****  ****    0 ROOT
