@<TRIPOS>MOLECULE
FF5
   53    54     1     0     0
SMALL
No Charge or Current Charge


@<TRIPOS>ATOM
      1 C1          -6.5270    -1.0750    -0.0830 ca         1 FF5       0.024000
      2 C2          -7.2750     1.2410    -0.1220 ca         1 FF5       0.024000
      3 C3          -5.9360     1.6650    -0.1300 ca         1 FF5      -0.181000
      4 C4          -4.8810     0.7350    -0.1150 ca         1 FF5       0.055000
      5 C5          -5.1900    -0.6420    -0.0910 ca         1 FF5      -0.181000
      6 C9          -2.3130     0.6310    -0.1110 c          1 FF5       0.665100
      7 C11          0.1340     1.4360    -0.1300 ca         1 FF5      -0.065000
      8 C12          0.8080     0.1940    -0.1070 ca         1 FF5      -0.088500
      9 C13          2.2140     0.1450    -0.1070 ca         1 FF5      -0.153500
     10 C14          2.9670     1.3380    -0.1290 ca         1 FF5       0.137100
     11 C15          2.2990     2.5710    -0.1520 ca         1 FF5      -0.153500
     12 C16          0.8950     2.6210    -0.1520 ca         1 FF5      -0.088500
     13 C20          9.0500    -0.2740    -0.1040 c3         1 FF5       0.107000
     14 O21         11.9100    -0.3310    -0.1110 o          1 FF5      -0.607100
     15 O6          -9.3800    -2.0420    -0.6380 o          1 FF5      -0.546500
     16 O7         -10.1630     0.4010    -0.4810 o          1 FF5      -0.546500
     17 N10         -9.5530    -0.8590     1.5160 n8         1 FF5      -0.998100
     18 C           -7.5740    -0.1340    -0.0970 ca         1 FF5      -0.314500
     19 N4          -3.5550     1.2480    -0.1250 ns         1 FF5      -0.164000
     20 O9          -2.1430    -0.5820    -0.0840 o          1 FF5      -0.593100
     21 N9          -1.2850     1.5660    -0.1320 ns         1 FF5      -0.166000
     22 O14          4.3460     1.3500    -0.1300 os         1 FF5      -0.347100
     23 C17          5.1230     0.1400    -0.1080 c3         1 FF5       0.164600
     24 C18          6.6110     0.5410    -0.1170 c3         1 FF5      -0.079400
     25 C19          7.5630    -0.6760    -0.0960 c3         1 FF5      -0.095400
     26 N20          9.9240    -1.4460    -0.0840 ns         1 FF5      -0.512900
     27 C21         11.2980    -1.3890    -0.0890 c          1 FF5       0.599100
     28 C22         11.9960    -2.7420    -0.0660 c3         1 FF5      -0.178100
     29 H1          -6.7430    -2.1430    -0.0630 ha         1 FF5       0.137500
     30 H2          -8.0710     1.9860    -0.1360 ha         1 FF5       0.137500
     31 H3          -5.7190     2.7310    -0.1490 ha         1 FF5       0.133500
     32 H4          -4.4120    -1.3980    -0.0790 ha         1 FF5       0.133500
     33 H5           0.2640    -0.7450    -0.0900 ha         1 FF5       0.124000
     34 H6           2.6990    -0.8270    -0.0890 ha         1 FF5       0.125500
     35 H7           2.8740     3.4940    -0.1690 ha         1 FF5       0.125500
     36 H8           0.3960     3.5890    -0.1700 ha         1 FF5       0.124000
     37 H9           9.2670     0.3150    -1.0050 h1         1 FF5       0.053700
     38 H10          9.2690     0.3470     0.7750 h1         1 FF5       0.053700
     39 H11         -8.8200    -0.2830     1.9210 hn         1 FF5       0.469500
     40 H12        -10.3940    -0.2990     1.6250 hn         1 FF5       0.469500
     41 H13         -3.5150     2.2580    -0.1470 hn         1 FF5       0.150000
     42 H14         -1.6030     2.5260    -0.1530 hn         1 FF5       0.150000
     43 H15          4.9050    -0.4440     0.7950 h1         1 FF5       0.035200
     44 H16          4.9040    -0.4770    -0.9900 h1         1 FF5       0.035200
     45 H17          6.8130     1.1440    -1.0110 hc         1 FF5       0.060700
     46 H18          6.8140     1.1750     0.7550 hc         1 FF5       0.060700
     47 H19          7.3570    -1.3100    -0.9670 hc         1 FF5       0.043700
     48 H20          7.3580    -1.2790     0.7980 hc         1 FF5       0.043700
     49 H21          9.5040    -2.3680    -0.0650 hn         1 FF5       0.311500
     50 H22         11.6390    -3.3120     0.8000 hc         1 FF5       0.059367
     51 H23         11.6340    -3.3450    -0.9060 hc         1 FF5       0.059367
     52 H24         13.0880    -2.6550    -0.0710 hc         1 FF5       0.059367
     53 S8          -9.2760    -0.6910    -0.0860 sy         1 FF5       1.130600
@<TRIPOS>BOND
     1     1     5 ar  
     2     1    18 ar  
     3     1    29 1   
     4     2     3 ar  
     5     2    18 ar  
     6     2    30 1   
     7     3     4 ar  
     8     3    31 1   
     9     4     5 ar  
    10     4    19 1   
    11     5    32 1   
    12     6    19 1   
    13     6    20 2   
    14     6    21 1   
    15     7     8 ar  
    16     7    12 ar  
    17     7    21 1   
    18     8     9 ar  
    19     8    33 1   
    20     9    10 ar  
    21     9    34 1   
    22    10    11 ar  
    23    10    22 1   
    24    11    12 ar  
    25    11    35 1   
    26    12    36 1   
    27    13    25 1   
    28    13    26 1   
    29    13    37 1   
    30    13    38 1   
    31    14    27 2   
    32    15    53 2   
    33    16    53 2   
    34    17    39 1   
    35    17    40 1   
    36    17    53 1   
    37    18    53 1   
    38    19    41 1   
    39    21    42 1   
    40    22    23 1   
    41    23    24 1   
    42    23    43 1   
    43    23    44 1   
    44    24    25 1   
    45    24    45 1   
    46    24    46 1   
    47    25    47 1   
    48    25    48 1   
    49    26    27 1   
    50    26    49 1   
    51    27    28 1   
    52    28    50 1   
    53    28    51 1   
    54    28    52 1   
@<TRIPOS>SUBSTRUCTURE
     1 FF5         1 TEMP              0 ****  ****    0 ROOT
