@<TRIPOS>MOLECULE
FF5
   53    54     1     0     0
SMALL
bcc


@<TRIPOS>ATOM
      1 C1          -6.0390    -0.8840     0.6590 ca         1 FF5       0.006000
      2 C2          -6.9750     0.7480    -0.8430 ca         1 FF5       0.006000
      3 C3          -5.7360     1.3490    -0.9430 ca         1 FF5      -0.199000
      4 C4          -4.6290     0.8420    -0.2530 ca         1 FF5       0.147600
      5 C5          -4.7980    -0.2850     0.5610 ca         1 FF5      -0.199000
      6 C9          -2.1640     1.0710    -0.1180 c          1 FF5       0.799100
      7 C11          0.1720     1.8080    -0.2120 ca         1 FF5       0.027600
      8 C12          0.8220     0.6460    -0.6070 ca         1 FF5      -0.106500
      9 C13          2.1950     0.5080    -0.4370 ca         1 FF5      -0.171500
     10 C14          2.9440     1.5450     0.1120 ca         1 FF5       0.137100
     11 C15          2.2940     2.7190     0.4930 ca         1 FF5      -0.171500
     12 C16          0.9260     2.8410     0.3420 ca         1 FF5      -0.106500
     13 C20          8.7510    -0.4770     0.1710 c3         1 FF5       0.107000
     14 O21         11.4930    -0.8800     0.5160 o          1 FF5      -0.607100
     15 O6          -8.5000    -2.6170     0.1580 o          1 FF5      -0.617300
     16 O7          -9.5510    -0.6450    -0.9620 o          1 FF5      -0.617300
     17 N10         -9.1650    -0.7150     1.6030 n8         1 FF5      -0.887700
     18 C           -7.1250    -0.3740    -0.0410 ca         1 FF5      -0.314500
     19 N4          -3.4330     1.5220    -0.4060 ns         1 FF5      -0.490100
     20 O9          -1.9220    -0.0360     0.3240 o          1 FF5      -0.593100
     21 N9          -1.2080     2.0010    -0.4000 ns         1 FF5      -0.492100
     22 O14          4.2780     1.5060     0.3040 os         1 FF5      -0.323900
     23 C17          4.9870     0.3340    -0.0630 c3         1 FF5       0.141400
     24 C18          6.4520     0.5470     0.2490 c3         1 FF5      -0.079400
     25 C19          7.2750    -0.6770    -0.1320 c3         1 FF5      -0.095400
     26 N20          9.5080    -1.6510    -0.2090 ns         1 FF5      -0.579900
     27 C21         10.8300    -1.7640    -0.0140 c          1 FF5       0.666100
     28 C22         11.4510    -3.0560    -0.4850 c3         1 FF5      -0.178100
     29 H1          -6.1490    -1.7530     1.2960 ha         1 FF5       0.155500
     30 H2          -7.8090     1.1560    -1.3970 ha         1 FF5       0.155500
     31 H3          -5.6220     2.2210    -1.5750 ha         1 FF5       0.151500
     32 H4          -3.9750    -0.6970     1.1210 ha         1 FF5       0.151500
     33 H5           0.2750    -0.1650    -1.0640 ha         1 FF5       0.142000
     34 H6           2.6580    -0.4140    -0.7600 ha         1 FF5       0.143500
     35 H7           2.8650     3.5340     0.9190 ha         1 FF5       0.143500
     36 H8           0.4380     3.7550     0.6580 ha         1 FF5       0.142000
     37 H9           9.1230     0.4000    -0.3660 h1         1 FF5       0.053700
     38 H10          8.8860    -0.2770     1.2370 h1         1 FF5       0.053700
     39 H11         -9.4210     0.2670     1.6480 hn         1 FF5       0.414300
     40 H12         -9.9360    -1.2880     1.9340 hn         1 FF5       0.414300
     41 H13         -3.5030     2.3950    -0.9080 hn         1 FF5       0.316500
     42 H14         -1.5020     2.9490    -0.5820 hn         1 FF5       0.316500
     43 H15          4.6040    -0.5330     0.4890 h1         1 FF5       0.035200
     44 H16          4.8560     0.1260    -1.1320 h1         1 FF5       0.035200
     45 H17          6.8190     1.4220    -0.2950 hc         1 FF5       0.060700
     46 H18          6.5730     0.7580     1.3150 hc         1 FF5       0.060700
     47 H19          7.1480    -0.8890    -1.1980 hc         1 FF5       0.043700
     48 H20          6.9070    -1.5540     0.4100 hc         1 FF5       0.043700
     49 H21          9.0190    -2.4040    -0.6640 hn         1 FF5       0.311500
     50 H22         11.8990    -3.5730     0.3630 hc         1 FF5       0.059367
     51 H23         10.7430    -3.7300    -0.9640 hc         1 FF5       0.059367
     52 H24         12.2520    -2.8380    -1.1910 hc         1 FF5       0.059367
     53 S8          -8.6870    -1.1740     0.0870 sy         1 FF5       1.272200
@<TRIPOS>BOND
     1     1     5 ar  
     2     1    18 ar  
     3     1    29 1   
     4     2     3 ar  
     5     2    18 ar  
     6     2    30 1   
     7     3     4 ar  
     8     3    31 1   
     9     4     5 ar  
    10     4    19 1   
    11     5    32 1   
    12     6    19 1   
    13     6    20 2   
    14     6    21 1   
    15     7     8 ar  
    16     7    12 ar  
    17     7    21 1   
    18     8     9 ar  
    19     8    33 1   
    20     9    10 ar  
    21     9    34 1   
    22    10    11 ar  
    23    10    22 1   
    24    11    12 ar  
    25    11    35 1   
    26    12    36 1   
    27    13    25 1   
    28    13    26 1   
    29    13    37 1   
    30    13    38 1   
    31    14    27 2   
    32    15    53 2   
    33    16    53 2   
    34    17    39 1   
    35    17    40 1   
    36    17    53 1   
    37    18    53 1   
    38    19    41 1   
    39    21    42 1   
    40    22    23 1   
    41    23    24 1   
    42    23    43 1   
    43    23    44 1   
    44    24    25 1   
    45    24    45 1   
    46    24    46 1   
    47    25    47 1   
    48    25    48 1   
    49    26    27 1   
    50    26    49 1   
    51    27    28 1   
    52    28    50 1   
    53    28    51 1   
    54    28    52 1   
@<TRIPOS>SUBSTRUCTURE
     1 FF5         1 TEMP              0 ****  ****    0 ROOT
