@<TRIPOS>MOLECULE
FF7
   42    43     1     0     0
SMALL
No Charge or Current Charge


@<TRIPOS>ATOM
      1 C4          -7.0990    -2.3680    -1.9560 cc         1 FF7       0.743500
      2 N4          -7.9990    -3.2800    -2.2560 nv         1 FF7      -1.065200
      3 C5          -7.1450    -1.1280    -2.6160 cc         1 FF7      -0.508600
      4 C6          -6.1900    -0.1920    -2.3010 cd         1 FF7      -0.031400
      5 N3          -6.2310    -2.7060    -1.0720 nd         1 FF7      -0.795100
      6 C2          -5.2400    -1.7850    -0.7130 c          1 FF7       0.721400
      7 O2          -4.4530    -2.1220     0.1570 o          1 FF7      -0.545000
      8 N1          -5.2260    -0.5160    -1.3500 n          1 FF7      -0.310000
      9 C1          -4.1590     0.4750    -1.0570 c5         1 FF7       0.343700
     10 C9          -4.5170     1.2020     0.2800 c5         1 FF7      -0.148400
     11 C3          -3.3020     0.8520     1.1840 c5         1 FF7       0.119300
     12 O3          -3.0330     1.8840     2.1390 oh         1 FF7      -0.706000
     13 O4          -2.8550    -0.1060    -0.8900 os         1 FF7      -0.388000
     14 C7          -2.1870     0.6910     0.1100 c5         1 FF7       0.167300
     15 C8          -0.8910    -0.0050     0.6240 c3         1 FF7       0.241600
     16 O5          -0.0110    -0.3550    -0.4600 os         1 FF7      -0.556400
     17 PA           0.9730     0.7300    -1.1350 p5         1 FF7       1.464800
     18 O1A          0.2780     2.0360    -1.3340 o          1 FF7      -0.873000
     19 O2A          1.4990     0.1650    -2.4130 o          1 FF7      -0.873000
     20 O3A          2.0210     0.7660     0.0380 os         1 FF7      -0.704800
     21 PB           3.4490     1.2950    -0.3910 p5         1 FF7       1.507400
     22 O1B          3.3610     2.5400    -1.2210 o          1 FF7      -0.850000
     23 O2B          4.3100     0.2570    -1.0430 o          1 FF7      -0.850000
     24 C3B          4.0390     1.8380     1.2520 c3         1 FF7      -0.382700
     25 PG           4.6360     0.3010     2.0190 p5         1 FF7       1.307500
     26 O2G          4.7530     0.6000     3.4770 o          1 FF7      -0.909833
     27 O1G          3.7230    -0.8640     1.8470 o          1 FF7      -0.909833
     28 O3G          6.0080    -0.0140     1.5210 o          1 FF7      -0.909833
     29 Cl           5.1820     3.3110     1.3330 cl         1 FF7      -0.375000
     30 H1          -8.4130    -3.1920    -3.1750 hn         1 FF7       0.475000
     31 H2          -7.7500    -4.2150    -1.9650 hn         1 FF7       0.475000
     32 H3          -7.9190    -0.9310    -3.3480 ha         1 FF7       0.166000
     33 H4          -6.1080     0.8030    -2.7340 h4         1 FF7       0.177000
     34 H5          -4.1390     1.1910    -1.8870 h2         1 FF7       0.023700
     35 H6          -4.6010     2.2810     0.1090 hc         1 FF7       0.034200
     36 H7          -5.4650     0.8720     0.7210 hc         1 FF7       0.034200
     37 H8          -3.4660    -0.1100     1.6930 h1         1 FF7       0.075700
     38 H9          -3.8400     1.9780     2.6960 ho         1 FF7       0.470000
     39 H10         -1.9390     1.6680    -0.3230 h1         1 FF7       0.060700
     40 H11         -0.3870     0.6630     1.3340 h1         1 FF7       0.018200
     41 H12         -1.1750    -0.9120     1.1730 h1         1 FF7       0.018200
     42 H15          3.1390     2.1200     1.8060 h1         1 FF7       0.049700
@<TRIPOS>BOND
     1     1     2 1   
     2     1     3 1   
     3     1     5 2   
     4     2    30 1   
     5     2    31 1   
     6     3     4 2   
     7     3    32 1   
     8     4     8 1   
     9     4    33 1   
    10     5     6 1   
    11     6     7 2   
    12     6     8 1   
    13     8     9 1   
    14     9    10 1   
    15     9    13 1   
    16     9    34 1   
    17    10    11 1   
    18    10    35 1   
    19    10    36 1   
    20    11    12 1   
    21    11    14 1   
    22    11    37 1   
    23    12    38 1   
    24    13    14 1   
    25    14    15 1   
    26    14    39 1   
    27    15    16 1   
    28    15    40 1   
    29    15    41 1   
    30    16    17 1   
    31    17    18 1   
    32    17    19 1   
    33    17    20 1   
    34    20    21 1   
    35    21    22 1   
    36    21    23 1   
    37    21    24 1   
    38    24    25 1   
    39    24    29 1   
    40    24    42 1   
    41    25    26 1   
    42    25    27 1   
    43    25    28 1   
@<TRIPOS>SUBSTRUCTURE
     1 FF7         1 TEMP              0 ****  ****    0 ROOT
