@<TRIPOS>MOLECULE
FF7
   42    43     1     0     0
SMALL
bcc


@<TRIPOS>ATOM
      1 C4          -5.8630    -2.8730     0.1090 cc         1 FF7       0.743500
      2 N4          -6.3030    -4.0250     0.6160 nv         1 FF7      -0.954800
      3 C5          -5.8090    -2.7020    -1.3080 cc         1 FF7      -0.458600
      4 C6          -5.3510    -1.5130    -1.7460 cd         1 FF7       0.018600
      5 N3          -5.4870    -1.9250     0.9440 nd         1 FF7      -0.795100
      6 C2          -5.0350    -0.7360     0.4940 c          1 FF7       0.863900
      7 O2          -4.6830     0.1590     1.2500 o          1 FF7      -0.620500
      8 N1          -4.9760    -0.5290    -0.8940 n          1 FF7      -0.377000
      9 C1          -4.4610     0.7200    -1.4430 c5         1 FF7       0.320500
     10 C9          -5.1650     2.0010    -0.9840 c5         1 FF7      -0.148400
     11 C3          -4.1090     2.7660    -0.1880 c5         1 FF7       0.096100
     12 O3          -4.0840     4.1540    -0.4190 oh         1 FF7      -0.583800
     13 O4          -3.1050     0.8440    -1.1210 os         1 FF7      -0.341600
     14 C7          -2.7990     2.1590    -0.6930 c5         1 FF7       0.144100
     15 C8          -1.7260     2.1230     0.3680 c3         1 FF7       0.218400
     16 O5          -0.5430     1.5780    -0.1700 os         1 FF7      -0.533200
     17 PA           0.8750     1.9310     0.6140 p5         1 FF7       1.464800
     18 O1A          0.6780     1.6870     2.0790 o          1 FF7      -0.873000
     19 O2A          1.3600     3.2690     0.1420 o          1 FF7      -0.873000
     20 O3A          1.6910     0.7240    -0.1040 os         1 FF7      -0.704800
     21 PB           3.3640     0.6030    -0.1550 p5         1 FF7       1.349600
     22 O1B          3.9200     1.3270     1.0340 o          1 FF7      -0.850000
     23 O2B          3.7810     0.9920    -1.5450 o          1 FF7      -0.850000
     24 C3B          3.4930    -1.2140     0.0060 c3         1 FF7      -0.143700
     25 PG           5.2070    -1.9550    -0.2830 p5         1 FF7       1.149700
     26 O2G          5.0820    -3.3960     0.2150 o          1 FF7      -0.909833
     27 O1G          5.3740    -1.8420    -1.7980 o          1 FF7      -0.909833
     28 O3G          6.1670    -1.0900     0.5300 o          1 FF7      -0.909833
     29 CL           2.8730    -1.6730     1.6530 cl         1 FF7      -0.298400
     30 H1          -6.5890    -4.7840     0.0240 hn         1 FF7       0.419800
     31 H2          -6.3240    -4.1650     1.6110 hn         1 FF7       0.419800
     32 H3          -6.1080    -3.4770    -1.9970 ha         1 FF7       0.116000
     33 H4          -5.2650    -1.2930    -2.8010 h4         1 FF7       0.127000
     34 H5          -4.5770     0.6090    -2.5250 h2         1 FF7       0.023700
     35 H6          -5.4420     2.5820    -1.8660 hc         1 FF7       0.034200
     36 H7          -6.0770     1.8070    -0.4220 hc         1 FF7       0.034200
     37 H8          -4.2280     2.5550     0.8780 h1         1 FF7       0.075700
     38 H9          -4.8100     4.5530     0.0690 ho         1 FF7       0.371000
     39 H10         -2.4470     2.7550    -1.5480 h1         1 FF7       0.060700
     40 H11         -1.5830     3.1540     0.7180 h1         1 FF7       0.018200
     41 H12         -2.0800     1.5340     1.2210 h1         1 FF7       0.018200
     42 H15          2.7930    -1.6770    -0.6940 h1         1 FF7       0.049700
@<TRIPOS>BOND
     1     1     2 1   
     2     1     3 1   
     3     1     5 2   
     4     2    30 1   
     5     2    31 1   
     6     3     4 2   
     7     3    32 1   
     8     4     8 1   
     9     4    33 1   
    10     5     6 1   
    11     6     7 2   
    12     6     8 1   
    13     8     9 1   
    14     9    10 1   
    15     9    13 1   
    16     9    34 1   
    17    10    11 1   
    18    10    35 1   
    19    10    36 1   
    20    11    12 1   
    21    11    14 1   
    22    11    37 1   
    23    12    38 1   
    24    13    14 1   
    25    14    15 1   
    26    14    39 1   
    27    15    16 1   
    28    15    40 1   
    29    15    41 1   
    30    16    17 1   
    31    17    18 1   
    32    17    19 1   
    33    17    20 1   
    34    20    21 1   
    35    21    22 1   
    36    21    23 1   
    37    21    24 1   
    38    24    25 1   
    39    24    29 1   
    40    24    42 1   
    41    25    26 1   
    42    25    27 1   
    43    25    28 1   
@<TRIPOS>SUBSTRUCTURE
     1 FF7         1 TEMP              0 ****  ****    0 ROOT
