@<TRIPOS>MOLECULE
FF8
   53    54     1     0     0
SMALL
No Charge or Current Charge


@<TRIPOS>ATOM
      1 C01          3.7990    -1.1840     0.9560 ca         1 FF8       0.176000
      2 C02          4.8260    -0.2450     1.1420 ca         1 FF8      -0.169000
      3 C03          4.7480     1.0320     0.5560 ca         1 FF8       0.056700
      4 C04          3.6190     1.3500    -0.2250 ca         1 FF8      -0.112000
      5 C05          2.5890     0.4130    -0.4110 ca         1 FF8      -0.078000
      6 C06          2.6570    -0.8770     0.1710 cp         1 FF8      -0.135000
      7 C07          0.1940    -1.4430     0.0440 ca         1 FF8      -0.104000
      8 C08          1.5460    -1.8570    -0.0450 cp         1 FF8       0.018000
      9 C09         -0.8590    -2.3520    -0.1740 ca         1 FF8       0.107100
     10 C10         -0.5760    -3.6950    -0.4620 ca         1 FF8      -0.122000
     11 C11          0.7570    -4.1260    -0.5630 ca         1 FF8      -0.109000
     12 C12          1.8060    -3.2140    -0.3610 ca         1 FF8      -0.090000
     13 C13          5.8800     2.0390     0.7780 c3         1 FF8      -0.181400
     14 C14          6.8160     2.0880    -0.4490 c          1 FF8       0.726000
     15 O15          7.9680     1.7070    -0.3070 o          1 FF8      -0.719500
     16 C16          5.3770     3.4480     1.1780 c3         1 FF8      -0.052100
     17 O17          6.3660     2.4810    -1.5170 o          1 FF8      -0.719500
     18 F18          3.9110    -2.3830     1.5700 f          1 FF8      -0.202000
     19 O19         -2.1740    -1.9620    -0.0630 os         1 FF8      -0.377200
     20 C20         -2.6850    -0.8150    -0.5970 c          1 FF8       0.638100
     21 O21         -2.1050    -0.0550    -1.3560 o          1 FF8      -0.518000
     22 N22         -3.9940    -0.6930    -0.2220 ns         1 FF8      -0.509900
     23 C23         -4.8710     0.3970    -0.6400 c3         1 FF8       0.123000
     24 C24         -6.2160     0.3620     0.1100 c3         1 FF8      -0.096400
     25 C25         -7.1670     1.5050    -0.3080 c3         1 FF8      -0.073400
     26 C26         -8.5160     1.4740     0.4430 c3         1 FF8      -0.075400
     27 C27         -9.4670     2.6170     0.0250 c3         1 FF8      -0.075400
     28 C28        -10.8140     2.5850     0.7730 c3         1 FF8      -0.088100
     29 H1           5.6840    -0.5150     1.7520 ha         1 FF8       0.122000
     30 H2           3.5380     2.3240    -0.7000 ha         1 FF8       0.126000
     31 H3           1.7340     0.6840    -1.0270 ha         1 FF8       0.104000
     32 H5          -1.3890    -4.4000    -0.6150 ha         1 FF8       0.113000
     33 H6           0.9770    -5.1650    -0.7990 ha         1 FF8       0.108000
     34 H7           2.8330    -3.5590    -0.4570 ha         1 FF8       0.127000
     35 H8           6.4820     1.6840     1.6230 hc         1 FF8       0.037700
     36 H10          4.8220     3.9270     0.3640 hc         1 FF8       0.018033
     37 H11          4.7210     3.3870     2.0550 hc         1 FF8       0.018033
     38 H12          6.2250     4.0960     1.4320 hc         1 FF8       0.018033
     39 H13         -4.3540    -1.4140     0.3890 hn         1 FF8       0.327500
     40 H14         -4.3670     1.3530    -0.4460 h1         1 FF8       0.050200
     41 H15         -5.0480     0.3130    -1.7210 h1         1 FF8       0.050200
     42 H16         -6.7070    -0.6020    -0.0750 hc         1 FF8       0.043700
     43 H17         -6.0270     0.4260     1.1890 hc         1 FF8       0.043700
     44 H18         -6.6740     2.4690    -0.1240 hc         1 FF8       0.042700
     45 H19         -7.3530     1.4420    -1.3880 hc         1 FF8       0.042700
     46 H20         -9.0090     0.5100     0.2580 hc         1 FF8       0.037700
     47 H21         -8.3300     1.5370     1.5220 hc         1 FF8       0.037700
     48 H22         -8.9790     3.5820     0.2090 hc         1 FF8       0.037700
     49 H23         -9.6580     2.5550    -1.0540 hc         1 FF8       0.037700
     50 H24        -11.3440     1.6450     0.5800 hc         1 FF8       0.030700
     51 H25        -10.6590     2.6810     1.8550 hc         1 FF8       0.030700
     52 H26        -11.4530     3.4130     0.4440 hc         1 FF8       0.030700
     53 H4          -0.0300    -0.4120     0.3010 ha         1 FF8       0.127000
@<TRIPOS>BOND
     1     1     2 ar  
     2     1     6 ar  
     3     1    18 1   
     4     2     3 ar  
     5     2    29 1   
     6     3     4 ar  
     7     3    13 1   
     8     4     5 ar  
     9     4    30 1   
    10     5     6 ar  
    11     5    31 1   
    12     6     8 1   
    13     7     8 ar  
    14     7     9 ar  
    15     7    53 1   
    16     8    12 ar  
    17     9    10 ar  
    18     9    19 1   
    19    10    11 ar  
    20    10    32 1   
    21    11    12 ar  
    22    11    33 1   
    23    12    34 1   
    24    13    14 1   
    25    13    16 1   
    26    13    35 1   
    27    14    15 1   
    28    14    17 1   
    29    16    36 1   
    30    16    37 1   
    31    16    38 1   
    32    19    20 1   
    33    20    21 2   
    34    20    22 1   
    35    22    23 1   
    36    22    39 1   
    37    23    24 1   
    38    23    40 1   
    39    23    41 1   
    40    24    25 1   
    41    24    42 1   
    42    24    43 1   
    43    25    26 1   
    44    25    44 1   
    45    25    45 1   
    46    26    27 1   
    47    26    46 1   
    48    26    47 1   
    49    27    28 1   
    50    27    48 1   
    51    27    49 1   
    52    28    50 1   
    53    28    51 1   
    54    28    52 1   
@<TRIPOS>SUBSTRUCTURE
     1 FF8         1 TEMP              0 ****  ****    0 ROOT
