@<TRIPOS>MOLECULE
FF8
   53    54     1     0     0
SMALL
bcc


@<TRIPOS>ATOM
      1 C01          3.8550    -1.2240     0.7330 ca         1 FF8       0.140900
      2 C02          4.9600    -0.4210     0.9400 ca         1 FF8      -0.187000
      3 C03          4.9510     0.9020     0.5150 ca         1 FF8       0.056700
      4 C04          3.7940     1.3810    -0.1020 ca         1 FF8      -0.130000
      5 C05          2.6980     0.5610    -0.2950 ca         1 FF8      -0.096000
      6 C06          2.6990    -0.7770     0.1120 cp         1 FF8      -0.135000
      7 C07          0.2580    -1.1910     0.2710 ca         1 FF8      -0.122000
      8 C08          1.5230    -1.6430    -0.1010 cp         1 FF8       0.018000
      9 C09         -0.8540    -1.9860     0.0510 ca         1 FF8       0.107100
     10 C10         -0.7420    -3.2330    -0.5400 ca         1 FF8      -0.140000
     11 C11          0.5170    -3.6820    -0.9140 ca         1 FF8      -0.127000
     12 C12          1.6410    -2.9000    -0.6980 ca         1 FF8      -0.108000
     13 C13          6.1390     1.7940     0.7410 c3         1 FF8      -0.181400
     14 C14          6.8150     2.2040    -0.5970 c          1 FF8       0.936600
     15 O15          7.5360     3.2190    -0.5640 o          1 FF8      -0.824800
     16 C16          5.7830     2.9940     1.6160 c3         1 FF8      -0.052100
     17 O17          6.6150     1.4630    -1.5770 o          1 FF8      -0.824800
     18 F18          3.9040    -2.4910     1.1830 f          1 FF8      -0.166900
     19 O19         -2.0860    -1.5530     0.4890 os         1 FF8      -0.377200
     20 C20         -2.8430    -0.8420    -0.3860 c          1 FF8       0.754100
     21 O21         -2.4830    -0.5760    -1.5100 o          1 FF8      -0.567000
     22 N22         -4.0080    -0.4990     0.1700 ns         1 FF8      -0.576900
     23 C23         -5.0050     0.2680    -0.5500 c3         1 FF8       0.123000
     24 C24         -6.2410     0.4710     0.3110 c3         1 FF8      -0.096400
     25 C25         -7.3110     1.2760    -0.4130 c3         1 FF8      -0.073400
     26 C26         -8.5570     1.4980     0.4360 c3         1 FF8      -0.075400
     27 C27         -9.6330     2.3050    -0.2790 c3         1 FF8      -0.075400
     28 C28        -10.8720     2.5240     0.5790 c3         1 FF8      -0.088100
     29 H1           5.8290    -0.8340     1.4380 ha         1 FF8       0.140000
     30 H2           3.7500     2.4070    -0.4470 ha         1 FF8       0.144000
     31 H3           1.8190     0.9540    -0.7910 ha         1 FF8       0.122000
     32 H5          -1.6200    -3.8450    -0.7000 ha         1 FF8       0.131000
     33 H6           0.6210    -4.6520    -1.3840 ha         1 FF8       0.126000
     34 H7           2.6080    -3.2620    -1.0160 ha         1 FF8       0.145000
     35 H8           6.8890     1.2050     1.2840 hc         1 FF8       0.037700
     36 H10          5.0770     3.6630     1.1190 hc         1 FF8       0.018033
     37 H11          5.3300     2.6760     2.5560 hc         1 FF8       0.018033
     38 H12          6.6730     3.5730     1.8530 hc         1 FF8       0.018033
     39 H13         -4.1940    -0.7660     1.1240 hn         1 FF8       0.327500
     40 H14         -4.5950     1.2390    -0.8400 h1         1 FF8       0.050200
     41 H15         -5.2800    -0.2520    -1.4710 h1         1 FF8       0.050200
     42 H16         -6.6480    -0.5020     0.6030 hc         1 FF8       0.043700
     43 H17         -5.9610     0.9850     1.2360 hc         1 FF8       0.043700
     44 H18         -6.8980     2.2450    -0.7130 hc         1 FF8       0.042700
     45 H19         -7.5890     0.7630    -1.3390 hc         1 FF8       0.042700
     46 H20         -8.9700     0.5290     0.7370 hc         1 FF8       0.037700
     47 H21         -8.2780     2.0100     1.3640 hc         1 FF8       0.037700
     48 H22         -9.2190     3.2720    -0.5800 hc         1 FF8       0.037700
     49 H23         -9.9120     1.7940    -1.2060 hc         1 FF8       0.037700
     50 H24        -11.3240     1.5730     0.8670 hc         1 FF8       0.030700
     51 H25        -10.6230     3.0600     1.4970 hc         1 FF8       0.030700
     52 H26        -11.6290     3.1050     0.0520 hc         1 FF8       0.030700
     53 H4           0.1420    -0.2270     0.7510 ha         1 FF8       0.145000
@<TRIPOS>BOND
     1     1     2 ar  
     2     1     6 ar  
     3     1    18 1   
     4     2     3 ar  
     5     2    29 1   
     6     3     4 ar  
     7     3    13 1   
     8     4     5 ar  
     9     4    30 1   
    10     5     6 ar  
    11     5    31 1   
    12     6     8 1   
    13     7     8 ar  
    14     7     9 ar  
    15     7    53 1   
    16     8    12 ar  
    17     9    10 ar  
    18     9    19 1   
    19    10    11 ar  
    20    10    32 1   
    21    11    12 ar  
    22    11    33 1   
    23    12    34 1   
    24    13    14 1   
    25    13    16 1   
    26    13    35 1   
    27    14    15 1   
    28    14    17 1   
    29    16    36 1   
    30    16    37 1   
    31    16    38 1   
    32    19    20 1   
    33    20    21 2   
    34    20    22 1   
    35    22    23 1   
    36    22    39 1   
    37    23    24 1   
    38    23    40 1   
    39    23    41 1   
    40    24    25 1   
    41    24    42 1   
    42    24    43 1   
    43    25    26 1   
    44    25    44 1   
    45    25    45 1   
    46    26    27 1   
    47    26    46 1   
    48    26    47 1   
    49    27    28 1   
    50    27    48 1   
    51    27    49 1   
    52    28    50 1   
    53    28    51 1   
    54    28    52 1   
@<TRIPOS>SUBSTRUCTURE
     1 FF8         1 TEMP              0 ****  ****    0 ROOT
