@<TRIPOS>MOLECULE
FF9
   32    31     1     0     0
SMALL
No Charge or Current Charge


@<TRIPOS>ATOM
      1 C2          44.4400    20.2530   -10.6070 c3         1 FF9      -0.072100
      2 C1          43.7350    21.1020    -9.5280 c3         1 FF9      -0.152700
      3 N           38.8330    26.1070   -15.6870 n8         1 FF9      -1.000200
      4 CA          39.0840    24.9070   -14.8070 c3         1 FF9       0.014500
      5 C           37.8110    24.3130   -14.0690 c          1 FF9       0.691000
      6 O           37.1350    25.0620   -13.3750 o          1 FF9      -0.742500
      7 CB          40.2330    25.2180   -13.8080 c3         1 FF9      -0.044400
      8 CG          40.7020    23.9940   -12.9840 c3         1 FF9      -0.075400
      9 CD          41.8850    24.3140   -12.0430 c3         1 FF9      -0.068400
     10 CE          42.3480    23.0900   -11.2260 c3         1 FF9       0.099800
     11 NZ          43.4730    23.4570   -10.3530 n2         1 FF9      -0.582900
     12 CX1         44.1050    22.5950    -9.5870 ce         1 FF9       0.333300
     13 CX2         45.2560    23.0950    -8.6700 c          1 FF9       0.629700
     14 O1          45.5640    24.2860    -8.6690 o          1 FF9      -0.718500
     15 O2          45.8560    22.2950    -7.9560 o          1 FF9      -0.718500
     16 OXT         37.4770    23.1630   -14.3240 o          1 FF9      -0.742500
     17 H1          44.1530    19.1990   -10.5120 hc         1 FF9       0.020700
     18 H2          44.1710    20.5920   -11.6140 hc         1 FF9       0.020700
     19 H3          45.5290    20.3220   -10.5000 hc         1 FF9       0.020700
     20 H4          42.6520    20.9580    -9.6100 hc         1 FF9       0.032700
     21 H5          43.9940    20.6810    -8.5500 hc         1 FF9       0.032700
     22 H9          39.4510    24.1130   -15.4730 h1         1 FF9       0.035700
     23 H10         41.0940    25.6120   -14.3640 hc         1 FF9       0.021700
     24 H11         39.9120    26.0090   -13.1190 hc         1 FF9       0.021700
     25 H12         39.8660    23.6120   -12.3850 hc         1 FF9       0.042200
     26 H13         40.9970    23.1900   -13.6710 hc         1 FF9       0.042200
     27 H14         42.7260    24.6900   -12.6380 hc         1 FF9       0.035200
     28 H15         41.5900    25.1170   -11.3550 hc         1 FF9       0.035200
     29 H16         41.5020    22.7240   -10.6290 h1         1 FF9       0.020200
     30 H17         42.6400    22.2940   -11.9230 h1         1 FF9       0.020200
     31 H6          38.1170    25.8650   -16.3830 hn         1 FF9       0.374000
     32 H7          38.3720    26.8290   -15.1190 hn         1 FF9       0.374000
@<TRIPOS>BOND
     1     1     2 1   
     2     1    17 1   
     3     1    18 1   
     4     1    19 1   
     5     2    12 1   
     6     2    20 1   
     7     2    21 1   
     8     3     4 1   
     9     3    31 1   
    10     3    32 1   
    11     4     5 1   
    12     4     7 1   
    13     4    22 1   
    14     5     6 1   
    15     5    16 1   
    16     7     8 1   
    17     7    23 1   
    18     7    24 1   
    19     8     9 1   
    20     8    25 1   
    21     8    26 1   
    22     9    10 1   
    23     9    27 1   
    24     9    28 1   
    25    10    11 1   
    26    10    29 1   
    27    10    30 1   
    28    11    12 2   
    29    12    13 1   
    30    13    14 1   
    31    13    15 1   
@<TRIPOS>SUBSTRUCTURE
     1 FF9         1 TEMP              0 ****  ****    0 ROOT
