@<TRIPOS>MOLECULE
FF9
   32    31     1     0     0
SMALL
bcc


@<TRIPOS>ATOM
      1 C2          44.3680    20.3930   -10.7560 c3         1 FF9      -0.072100
      2 C1          43.6680    21.1490    -9.6250 c3         1 FF9      -0.152700
      3 N           39.0140    25.9890   -15.6490 n8         1 FF9      -0.889800
      4 CA          39.2170    24.8090   -14.8100 c3         1 FF9       0.014500
      5 C           37.9200    24.2480   -14.1790 c          1 FF9       0.901600
      6 O           37.1210    25.0940   -13.7220 o          1 FF9      -0.847800
      7 CB          40.2300    25.1650   -13.7180 c3         1 FF9      -0.044400
      8 CG          40.6370    24.0090   -12.8110 c3         1 FF9      -0.075400
      9 CD          41.8330    24.3460   -11.9300 c3         1 FF9      -0.068400
     10 CE          42.2210    23.1950   -11.0140 c3         1 FF9       0.099800
     11 NZ          43.4020    23.5230   -10.2400 n2         1 FF9      -0.582900
     12 CX1         44.0350    22.6120    -9.6230 ce         1 FF9       0.333300
     13 CX2         45.3130    23.0120    -8.8530 c          1 FF9       0.840300
     14 O1          45.5270    24.2230    -8.6900 o          1 FF9      -0.823800
     15 O2          46.0250    22.0600    -8.4730 o          1 FF9      -0.823800
     16 OXT         37.7850    23.0070   -14.1560 o          1 FF9      -0.847800
     17 H1          44.1060    19.3340   -10.7350 hc         1 FF9       0.020700
     18 H2          44.0870    20.7820   -11.7350 hc         1 FF9       0.020700
     19 H3          45.4500    20.4730   -10.6620 hc         1 FF9       0.020700
     20 H4          42.5870    21.0280    -9.7250 hc         1 FF9       0.032700
     21 H5          43.9500    20.7040    -8.6720 hc         1 FF9       0.032700
     22 H9          39.6640    24.0310   -15.4380 h1         1 FF9       0.035700
     23 H10         41.1220    25.5670   -14.2080 hc         1 FF9       0.021700
     24 H11         39.8220    25.9800   -13.1090 hc         1 FF9       0.021700
     25 H12         39.7950    23.7100   -12.1800 hc         1 FF9       0.042200
     26 H13         40.8800    23.1340   -13.4240 hc         1 FF9       0.042200
     27 H14         42.6890    24.6040   -12.5610 hc         1 FF9       0.035200
     28 H15         41.6170    25.2340   -11.3260 hc         1 FF9       0.035200
     29 H16         41.3840    22.9770   -10.3380 h1         1 FF9       0.020200
     30 H17         42.3560    22.2920   -11.6220 h1         1 FF9       0.020200
     31 H6          38.4310    25.7320   -16.4380 hn         1 FF9       0.318800
     32 H7          38.4490    26.6430   -15.1170 hn         1 FF9       0.318800
@<TRIPOS>BOND
     1     1     2 1   
     2     1    17 1   
     3     1    18 1   
     4     1    19 1   
     5     2    12 1   
     6     2    20 1   
     7     2    21 1   
     8     3     4 1   
     9     3    31 1   
    10     3    32 1   
    11     4     5 1   
    12     4     7 1   
    13     4    22 1   
    14     5     6 1   
    15     5    16 1   
    16     7     8 1   
    17     7    23 1   
    18     7    24 1   
    19     8     9 1   
    20     8    25 1   
    21     8    26 1   
    22     9    10 1   
    23     9    27 1   
    24     9    28 1   
    25    10    11 1   
    26    10    29 1   
    27    10    30 1   
    28    11    12 2   
    29    12    13 1   
    30    13    14 1   
    31    13    15 1   
@<TRIPOS>SUBSTRUCTURE
     1 FF9         1 TEMP              0 ****  ****    0 ROOT
