@<TRIPOS>MOLECULE
FFA
   49    52     1     0     0
SMALL
abcg2


@<TRIPOS>ATOM
      1 C1          -0.1260     1.0150     4.5380 c6         1 FFA      -0.064400
      2 C2           0.0360     2.4900     4.2070 c6         1 FFA      -0.181400
      3 C3           0.8030     2.6820     2.9290 c          1 FFA       0.575300
      4 C4           0.5820     1.6710     1.9000 ce         1 FFA      -0.318200
      5 C5          -0.1800     0.5770     2.0790 c2         1 FFA      -0.032400
      6 C6          -0.7870     0.2010     3.4160 c6         1 FFA      -0.011800
      7 C7          -0.5200    -1.3140     3.6730 c6         1 FFA      -0.045700
      8 C8          -0.9620    -2.2120     2.5020 c6         1 FFA      -0.044700
      9 C9          -0.2490    -1.7840     1.2260 c6         1 FFA      -0.069400
     10 C10         -0.4950    -0.3130     0.9170 c6         1 FFA      -0.051200
     11 C11         -1.0750    -1.7910     5.0230 c6         1 FFA      -0.072400
     12 C12         -0.8110    -3.2750     5.2910 c6         1 FFA      -0.056400
     13 C14         -0.6630    -3.6620     2.8450 c5         1 FFA      -0.063700
     14 C13         -1.3280    -4.1320     4.1440 c5         1 FFA      -0.080000
     15 C15         -1.0240    -4.7480     1.8320 c5         1 FFA      -0.074400
     16 C16         -1.1070    -6.0430     2.6760 c5         1 FFA      -0.118400
     17 C17         -0.9480    -5.6250     4.1590 c5         1 FFA       0.174300
     18 C18         -2.8600    -4.0640     4.0790 c3         1 FFA      -0.080100
     19 C19         -2.2920     0.5160     3.3600 c3         1 FFA      -0.081100
     20 O3           1.5200     3.6490     2.7330 o          1 FFA      -0.529100
     21 O17          0.3470    -5.8870     4.6630 oh         1 FFA      -0.654000
     22 H11          0.8630     0.5920     4.7450 hc         1 FFA       0.049200
     23 H12         -0.7040     0.9190     5.4570 hc         1 FFA       0.049200
     24 H21          0.5280     3.0250     5.0200 hc         1 FFA       0.069200
     25 H22         -0.9420     2.9640     4.0690 hc         1 FFA       0.069200
     26 H4           1.0140     1.8690     0.9240 ha         1 FFA       0.195000
     27 H7           0.5750    -1.4160     3.7310 hc         1 FFA       0.047700
     28 H8          -2.0430    -2.1050     2.3420 hc         1 FFA       0.053700
     29 H91         -0.5800    -2.3870     0.3780 hc         1 FFA       0.045200
     30 H92          0.8270    -1.9610     1.3400 hc         1 FFA       0.045200
     31 H101        -1.5520    -0.1780     0.6600 hc         1 FFA       0.054200
     32 H102         0.0740     0.0040     0.0410 hc         1 FFA       0.054200
     33 H111        -2.1480    -1.5950     5.0840 hc         1 FFA       0.041200
     34 H112        -0.6220    -1.2140     5.8320 hc         1 FFA       0.041200
     35 H121         0.2660    -3.4280     5.4120 hc         1 FFA       0.047700
     36 H122        -1.2770    -3.5630     6.2390 hc         1 FFA       0.047700
     37 H14          0.4260    -3.7150     3.0110 hc         1 FFA       0.039700
     38 H151        -0.2900    -4.8280     1.0300 hc         1 FFA       0.044700
     39 H152        -1.9840    -4.5260     1.3590 hc         1 FFA       0.044700
     40 H161        -2.0590    -6.5510     2.5200 hc         1 FFA       0.052200
     41 H162        -0.3330    -6.7630     2.4040 hc         1 FFA       0.052200
     42 H17         -1.6210    -6.1920     4.8080 h1         1 FFA       0.078700
     43 H181        -3.2850    -4.3870     5.0320 hc         1 FFA       0.034367
     44 H182        -3.2360    -3.0620     3.8810 hc         1 FFA       0.034367
     45 H183        -3.2720    -4.7130     3.3040 hc         1 FFA       0.034367
     46 H191        -2.7680     0.2990     4.3150 hc         1 FFA       0.038033
     47 H192        -2.4640     1.5700     3.1390 hc         1 FFA       0.038033
     48 H193        -2.8080    -0.0630     2.5950 hc         1 FFA       0.038033
     49 HO17         0.9990    -5.5110     4.0630 ho         1 FFA       0.439000
@<TRIPOS>BOND
     1     1     2 1   
     2     1     6 1   
     3     1    22 1   
     4     1    23 1   
     5     2     3 1   
     6     2    24 1   
     7     2    25 1   
     8     3     4 1   
     9     3    20 2   
    10     4     5 2   
    11     4    26 1   
    12     5     6 1   
    13     5    10 1   
    14     6     7 1   
    15     6    19 1   
    16     7     8 1   
    17     7    11 1   
    18     7    27 1   
    19     8     9 1   
    20     8    13 1   
    21     8    28 1   
    22     9    10 1   
    23     9    29 1   
    24     9    30 1   
    25    10    31 1   
    26    10    32 1   
    27    11    12 1   
    28    11    33 1   
    29    11    34 1   
    30    12    14 1   
    31    12    35 1   
    32    12    36 1   
    33    13    14 1   
    34    13    15 1   
    35    13    37 1   
    36    14    17 1   
    37    14    18 1   
    38    15    16 1   
    39    15    38 1   
    40    15    39 1   
    41    16    17 1   
    42    16    40 1   
    43    16    41 1   
    44    17    21 1   
    45    17    42 1   
    46    18    43 1   
    47    18    44 1   
    48    18    45 1   
    49    19    46 1   
    50    19    47 1   
    51    19    48 1   
    52    21    49 1   
@<TRIPOS>SUBSTRUCTURE
     1 FFA         1 TEMP              0 ****  ****    0 ROOT
