@<TRIPOS>MOLECULE
FFA
   49    52     1     0     0
SMALL
No Charge or Current Charge


@<TRIPOS>ATOM
      1 C1          -0.0530     1.0710     4.5680 c6         1 FFA      -0.064400
      2 C2           0.1360     2.5660     4.2220 c6         1 FFA      -0.181400
      3 C3           0.8890     2.7350     2.9060 c          1 FFA       0.575300
      4 C4           0.5440     1.7630     1.8410 ce         1 FFA      -0.318200
      5 C5          -0.1750     0.6330     2.0520 c2         1 FFA      -0.032400
      6 C6          -0.7630     0.2480     3.4310 c6         1 FFA      -0.011800
      7 C7          -0.5410    -1.2980     3.7100 c6         1 FFA      -0.045700
      8 C8          -0.9710    -2.2050     2.5030 c6         1 FFA      -0.044700
      9 C9          -0.2280    -1.7710     1.2160 c6         1 FFA      -0.069400
     10 C10         -0.5090    -0.2940     0.8870 c6         1 FFA      -0.051200
     11 C11         -1.1900    -1.7980     5.0520 c6         1 FFA      -0.072400
     12 C12         -0.9210    -3.3060     5.3250 c6         1 FFA      -0.056400
     13 C14         -0.6740    -3.7170     2.8330 c5         1 FFA      -0.063700
     14 C13         -1.3790    -4.2070     4.1350 c5         1 FFA      -0.080000
     15 C15         -1.0620    -4.8520     1.8120 c5         1 FFA      -0.074400
     16 C16         -1.0380    -6.1580     2.6800 c5         1 FFA      -0.118400
     17 C17         -0.8570    -5.6910     4.1660 c5         1 FFA       0.174300
     18 C18         -2.9490    -4.1820     4.0870 c3         1 FFA      -0.080100
     19 C19         -2.2830     0.6260     3.3870 c3         1 FFA      -0.081100
     20 O3           1.7120     3.6230     2.7370 o          1 FFA      -0.529100
     21 O17          0.5100    -5.8110     4.5650 oh         1 FFA      -0.654000
     22 H11          0.9380     0.6430     4.7720 hc         1 FFA       0.049200
     23 H12         -0.6150     0.9950     5.5090 hc         1 FFA       0.049200
     24 H21          0.6330     3.1340     5.0190 hc         1 FFA       0.069200
     25 H22         -0.8600     3.0000     4.0720 hc         1 FFA       0.069200
     26 H4           0.9540     1.9930     0.8610 ha         1 FFA       0.195000
     27 H7           0.5440    -1.4410     3.8230 hc         1 FFA       0.047700
     28 H8          -2.0480    -2.0980     2.3260 hc         1 FFA       0.053700
     29 H91         -0.5390    -2.3970     0.3690 hc         1 FFA       0.045200
     30 H92          0.8540    -1.9190     1.3360 hc         1 FFA       0.045200
     31 H101        -1.5670    -0.1730     0.6160 hc         1 FFA       0.054200
     32 H102         0.0630    -0.0100    -0.0070 hc         1 FFA       0.054200
     33 H111        -2.2700    -1.6100     5.0510 hc         1 FFA       0.041200
     34 H112        -0.7910    -1.2300     5.9010 hc         1 FFA       0.041200
     35 H121         0.1550    -3.4310     5.5080 hc         1 FFA       0.047700
     36 H122        -1.4210    -3.6150     6.2530 hc         1 FFA       0.047700
     37 H14          0.4150    -3.7340     2.9650 hc         1 FFA       0.039700
     38 H151        -0.3560    -4.9040     0.9750 hc         1 FFA       0.044700
     39 H152        -2.0520    -4.6790     1.3760 hc         1 FFA       0.044700
     40 H161        -1.9740    -6.7160     2.5570 hc         1 FFA       0.052200
     41 H162        -0.2380    -6.8390     2.3670 hc         1 FFA       0.052200
     42 H17         -1.4780    -6.3030     4.8380 h1         1 FFA       0.078700
     43 H181        -3.3710    -4.5050     5.0470 hc         1 FFA       0.034367
     44 H182        -3.3520    -3.1870     3.8770 hc         1 FFA       0.034367
     45 H183        -3.3640    -4.8520     3.3260 hc         1 FFA       0.034367
     46 H191        -2.7530     0.5450     4.3740 hc         1 FFA       0.038033
     47 H192        -2.4310     1.6570     3.0470 hc         1 FFA       0.038033
     48 H193        -2.8510    -0.0120     2.7020 hc         1 FFA       0.038033
     49 HO17         1.0230    -5.2500     3.9470 ho         1 FFA       0.439000
@<TRIPOS>BOND
     1     1     2 1   
     2     1     6 1   
     3     1    22 1   
     4     1    23 1   
     5     2     3 1   
     6     2    24 1   
     7     2    25 1   
     8     3     4 1   
     9     3    20 2   
    10     4     5 2   
    11     4    26 1   
    12     5     6 1   
    13     5    10 1   
    14     6     7 1   
    15     6    19 1   
    16     7     8 1   
    17     7    11 1   
    18     7    27 1   
    19     8     9 1   
    20     8    13 1   
    21     8    28 1   
    22     9    10 1   
    23     9    29 1   
    24     9    30 1   
    25    10    31 1   
    26    10    32 1   
    27    11    12 1   
    28    11    33 1   
    29    11    34 1   
    30    12    14 1   
    31    12    35 1   
    32    12    36 1   
    33    13    14 1   
    34    13    15 1   
    35    13    37 1   
    36    14    17 1   
    37    14    18 1   
    38    15    16 1   
    39    15    38 1   
    40    15    39 1   
    41    16    17 1   
    42    16    40 1   
    43    16    41 1   
    44    17    21 1   
    45    17    42 1   
    46    18    43 1   
    47    18    44 1   
    48    18    45 1   
    49    19    46 1   
    50    19    47 1   
    51    19    48 1   
    52    21    49 1   
@<TRIPOS>SUBSTRUCTURE
     1 FFA         1 TEMP              0 ****  ****    0 ROOT
