@<TRIPOS>MOLECULE
FFB
   34    35     1     0     0
SMALL
abcg2


@<TRIPOS>ATOM
      1 C01         -2.9090    -1.8440    -0.2870 ca         1 FFB      -0.095500
      2 C02         -4.1390    -1.2060    -0.3220 ca         1 FFB      -0.017000
      3 C03         -4.1870     0.1690    -0.1500 ca         1 FFB      -0.249500
      4 C04         -3.0340     0.9130     0.0550 ca         1 FFB      -0.017000
      5 C05         -1.8130     0.2630     0.1030 ca         1 FFB      -0.095500
      6 C06         -1.7440    -1.1190    -0.0640 ca         1 FFB      -0.099600
      7 C07         -0.4400    -1.8550    -0.0730 c          1 FFB       0.613700
      8 O08         -0.2950    -2.8600    -0.7510 o          1 FFB      -0.578100
      9 N09          0.5240    -1.3330     0.7070 ns         1 FFB      -0.506900
     10 C10          1.8670    -1.8570     0.7700 c3         1 FFB       0.153300
     11 S11         -5.7430     1.0170    -0.2420 sy         1 FFB       1.126600
     12 NP2         -5.9570     1.4610     1.3320 n8         1 FFB      -1.011100
     13 O13         -5.5650     2.2540    -0.9870 o          1 FFB      -0.539500
     14 O14         -6.7390     0.0610    -0.7030 o          1 FFB      -0.539500
     15 C15          2.8790    -0.8140     0.3710 ca         1 FFB      -0.169300
     16 C16          3.7890    -0.2800     1.2670 ca         1 FFB       0.182500
     17 C17          4.7070     0.6860     0.8930 ca         1 FFB       0.096500
     18 C18          4.7200     1.1440    -0.4090 ca         1 FFB       0.149000
     19 C19          3.8200     0.6350    -1.3280 ca         1 FFB       0.096500
     20 C20          2.9180    -0.3310    -0.9290 ca         1 FFB       0.182500
     21 F21          3.8040    -0.6940     2.5320 f          1 FFB      -0.139000
     22 F22          5.5720     1.1730     1.7760 f          1 FFB      -0.131000
     23 F23          5.5950     2.0680    -0.7810 f          1 FFB      -0.128000
     24 F24          3.8330     1.0760    -2.5810 f          1 FFB      -0.131000
     25 F25          2.0630    -0.8070    -1.8300 f          1 FFB      -0.139000
     26 H01C        -2.8630    -2.9150    -0.4290 ha         1 FFB       0.130000
     27 H02C        -5.0390    -1.7800    -0.4870 ha         1 FFB       0.142000
     28 H04C        -3.0740     1.9880     0.1720 ha         1 FFB       0.142000
     29 H05C        -0.9180     0.8550     0.2440 ha         1 FFB       0.130000
     30 H09N         0.2940    -0.5860     1.3430 hn         1 FFB       0.321500
     31 H101         2.0770    -2.2210     1.7750 h1         1 FFB       0.082700
     32 H102         1.9350    -2.7170     0.1060 h1         1 FFB       0.082700
     33 HNP1        -6.5770     2.2620     1.4150 hn         1 FFB       0.477000
     34 HNP2        -6.2780     0.6990     1.9200 hn         1 FFB       0.477000
@<TRIPOS>BOND
     1     1     2 ar  
     2     1     6 ar  
     3     1    26 1   
     4     2     3 ar  
     5     2    27 1   
     6     3     4 ar  
     7     3    11 1   
     8     4     5 ar  
     9     4    28 1   
    10     5     6 ar  
    11     5    29 1   
    12     6     7 1   
    13     7     8 2   
    14     7     9 1   
    15     9    10 1   
    16     9    30 1   
    17    10    15 1   
    18    10    31 1   
    19    10    32 1   
    20    11    12 1   
    21    11    13 2   
    22    11    14 2   
    23    12    33 1   
    24    12    34 1   
    25    15    16 ar  
    26    15    20 ar  
    27    16    17 ar  
    28    16    21 1   
    29    17    18 ar  
    30    17    22 1   
    31    18    19 ar  
    32    18    23 1   
    33    19    20 ar  
    34    19    24 1   
    35    20    25 1   
@<TRIPOS>SUBSTRUCTURE
     1 FFB         1 TEMP              0 ****  ****    0 ROOT
