@<TRIPOS>MOLECULE
FFB
   34    35     1     0     0
SMALL
No Charge or Current Charge


@<TRIPOS>ATOM
      1 C01         -3.0770    -1.9400     0.1430 ca         1 FFB      -0.095500
      2 C02         -4.3050    -1.2570     0.0980 ca         1 FFB      -0.017000
      3 C03         -4.3290     0.1480    -0.0020 ca         1 FFB      -0.249500
      4 C04         -3.1150     0.8600    -0.0520 ca         1 FFB      -0.017000
      5 C05         -1.8870     0.1750    -0.0060 ca         1 FFB      -0.095500
      6 C06         -1.8500    -1.2390     0.0910 ca         1 FFB      -0.099600
      7 C07         -0.5460    -2.0140     0.1430 c          1 FFB       0.613700
      8 O08         -0.5140    -3.2350     0.2290 o          1 FFB      -0.578100
      9 N09          0.6190    -1.2810     0.0890 ns         1 FFB      -0.506900
     10 C10          1.9580    -1.8640     0.1270 c3         1 FFB       0.153300
     11 S11         -5.8970     1.0250    -0.0610 sy         1 FFB       1.126600
     12 NP2         -6.2170     1.3180     1.5120 n8         1 FFB      -1.011100
     13 O13         -5.7290     2.3600    -0.6290 o          1 FFB      -0.539500
     14 O14         -6.9810     0.1340    -0.4690 o          1 FFB      -0.539500
     15 C15          3.0290    -0.7820     0.0490 ca         1 FFB      -0.169300
     16 C16          3.5350    -0.1870     1.2260 ca         1 FFB       0.182500
     17 C17          4.5250     0.8120     1.1550 ca         1 FFB       0.096500
     18 C18          5.0180     1.2260    -0.0940 ca         1 FFB       0.149000
     19 C19          4.5200     0.6430    -1.2730 ca         1 FFB       0.096500
     20 C20          3.5300    -0.3560    -1.2000 ca         1 FFB       0.182500
     21 F21          3.0660    -0.5740     2.4350 f          1 FFB      -0.139000
     22 F22          5.0030     1.3750     2.2910 f          1 FFB      -0.131000
     23 F23          5.9690     2.1870    -0.1630 f          1 FFB      -0.128000
     24 F24          4.9930     1.0430    -2.4780 f          1 FFB      -0.131000
     25 F25          3.0550    -0.9060    -2.3420 f          1 FFB      -0.139000
     26 H01C        -3.0850    -3.0250     0.2200 ha         1 FFB       0.130000
     27 H02C        -5.2330    -1.8240     0.1420 ha         1 FFB       0.142000
     28 H04C        -3.1160     1.9470    -0.1250 ha         1 FFB       0.142000
     29 H05C        -0.9750     0.7630    -0.0480 ha         1 FFB       0.130000
     30 H09N         0.5320    -0.2760     0.0180 hn         1 FFB       0.321500
     31 H101         2.0700    -2.4440     1.0540 h1         1 FFB       0.082700
     32 H102         2.0670    -2.5670    -0.7110 h1         1 FFB       0.082700
     33 HNP1        -6.3910     2.3200     1.4790 hn         1 FFB       0.477000
     34 HNP2        -7.1600     0.9420     1.5790 hn         1 FFB       0.477000
@<TRIPOS>BOND
     1     1     2 ar  
     2     1     6 ar  
     3     1    26 1   
     4     2     3 ar  
     5     2    27 1   
     6     3     4 ar  
     7     3    11 1   
     8     4     5 ar  
     9     4    28 1   
    10     5     6 ar  
    11     5    29 1   
    12     6     7 1   
    13     7     8 2   
    14     7     9 1   
    15     9    10 1   
    16     9    30 1   
    17    10    15 1   
    18    10    31 1   
    19    10    32 1   
    20    11    12 1   
    21    11    13 2   
    22    11    14 2   
    23    12    33 1   
    24    12    34 1   
    25    15    16 ar  
    26    15    20 ar  
    27    16    17 ar  
    28    16    21 1   
    29    17    18 ar  
    30    17    22 1   
    31    18    19 ar  
    32    18    23 1   
    33    19    20 ar  
    34    19    24 1   
    35    20    25 1   
@<TRIPOS>SUBSTRUCTURE
     1 FFB         1 TEMP              0 ****  ****    0 ROOT
