@<TRIPOS>MOLECULE
FFG
   73    79     1     0     0
SMALL
No Charge or Current Charge


@<TRIPOS>ATOM
      1 C13         -3.8710    -1.6230    -0.7670 cp         1 FFG      -0.001000
      2 C18          3.8750     0.2290    -1.1650 ca         1 FFG       0.003800
      3 C17         -6.3530    -2.1420    -0.4390 ca         1 FFG      -0.075300
      4 C16          1.6240     2.8630    -1.2430 cc         1 FFG      -0.115300
      5 C15          4.8780    -1.6110     0.1110 ca         1 FFG      -0.108900
      6 C19         -1.6910     0.2090    -1.0080 ca         1 FFG      -0.053000
      7 C20          1.8730     1.5320    -1.2020 cd         1 FFG      -0.214600
      8 C21          2.8700     3.5410    -1.2650 cc         1 FFG       0.130300
      9 C22          5.2620    -2.1860     1.4070 cc         1 FFG       0.411500
     10 C23          0.8160     0.4930    -1.1220 c          1 FFG       0.606600
     11 C24          6.1170    -3.7160     2.8390 c          1 FFG       0.564000
     12 C11         -2.7100     0.1640    -1.9850 ca         1 FFG      -0.101000
     13 C12          4.2550    -0.3430     0.0630 ca         1 FFG      -0.043000
     14 C27         -0.7220     2.3800    -1.8010 c6         1 FFG       0.107000
     15 C1          -5.7820    -4.9090    -0.5370 ca         1 FFG      -0.109000
     16 C2          -7.1020    -4.4710    -0.3610 ca         1 FFG      -0.107000
     17 C3           4.7410    -1.7210    -2.3320 ca         1 FFG      -0.101000
     18 C4          -4.7470    -3.9700    -0.6650 ca         1 FFG      -0.103000
     19 C5          -2.8020    -1.6380     0.1560 ca         1 FFG      -0.090000
     20 C6          -3.7930    -0.7230    -1.8540 ca         1 FFG      -0.090000
     21 C7           5.1160    -2.2940    -1.1040 ca         1 FFG      -0.083000
     22 C8          -7.3850    -3.0970    -0.3090 ca         1 FFG      -0.111000
     23 C9           4.1220    -0.4620    -2.3650 ca         1 FFG      -0.063000
     24 C10         -1.7180    -0.7530     0.0250 ca         1 FFG      -0.101000
     25 C14         -5.0090    -2.5790    -0.6280 cp         1 FFG      -0.022000
     26 C25          0.2400     3.4470    -1.2270 c6         1 FFG      -0.017100
     27 C26         -5.9820     0.3430     3.1700 c5         1 FFG      -0.125400
     28 C28         -6.7160    -0.5920     2.1840 c5         1 FFG       0.198800
     29 C29         -6.4880     1.4370     1.0390 c5         1 FFG       0.198800
     30 C30         -6.3060     1.7420     2.5730 c5         1 FFG       0.156300
     31 C32          2.9980     5.0580    -1.3050 c3         1 FFG       0.297700
     32 N33          3.9020     2.7060    -1.2420 nd         1 FFG      -0.439800
     33 N34          5.1030    -1.6450     2.6110 nd         1 FFG      -0.473300
     34 N35          3.2640     1.4800    -1.1920 na         1 FFG       0.279000
     35 N36          5.8640    -3.4130     1.5520 ns         1 FFG      -0.534900
     36 N37          5.6320    -2.6000     3.4470 ns         1 FFG      -0.367400
     37 N38         -0.5100     1.0100    -1.2340 n          1 FFG      -0.236400
     38 N39         -6.2270    -0.0240     0.9140 n3         1 FFG      -0.784600
     39 O41          6.6340    -4.7080     3.3150 o          1 FFG      -0.558000
     40 O42         -5.2700     2.6900     2.8540 oh         1 FFG      -0.660000
     41 F43          2.3130     5.6440    -0.2970 f          1 FFG      -0.106333
     42 F44          4.2840     5.4710    -1.1980 f          1 FFG      -0.106333
     43 F45          2.5180     5.5660    -2.4640 f          1 FFG      -0.106333
     44 H11         -2.6710     0.8140    -2.8550 ha         1 FFG       0.119000
     45 H12          4.0610     0.2050     0.9840 ha         1 FFG       0.156000
     46 H27         -1.7560     2.7040    -1.6190 h1         1 FFG       0.065700
     47 H27A        -0.5830     2.3250    -2.8900 h1         1 FFG       0.065700
     48 H1          -5.5610    -5.9730    -0.5730 ha         1 FFG       0.115000
     49 H2          -7.9070    -5.1960    -0.2590 ha         1 FFG       0.114000
     50 H3           4.9300    -2.2560    -3.2600 ha         1 FFG       0.127000
     51 H4          -3.7260    -4.3190    -0.8020 ha         1 FFG       0.119000
     52 H5          -2.8180    -2.3450     0.9820 ha         1 FFG       0.115500
     53 H6          -4.5710    -0.7290    -2.6130 ha         1 FFG       0.115500
     54 H7           5.5930    -3.2700    -1.1120 ha         1 FFG       0.116000
     55 H8          -8.4120    -2.7720    -0.1590 ha         1 FFG       0.110000
     56 H9           3.8340    -0.0230    -3.3180 ha         1 FFG       0.134000
     57 H10         -0.9120    -0.7980     0.7520 ha         1 FFG       0.119000
     58 H25         -0.0570     3.6990    -0.2000 hc         1 FFG       0.072200
     59 H25A         0.1680     4.3690    -1.8190 hc         1 FFG       0.072200
     60 H26A        -4.9050     0.1370     3.1710 hc         1 FFG       0.059700
     61 H28         -6.4230    -1.6430     2.3190 h1         1 FFG       0.037200
     62 H28A        -7.8090    -0.5170     2.2780 h1         1 FFG       0.037200
     63 H29         -7.5120     1.6860     0.7270 h1         1 FFG       0.044700
     64 H29A        -5.7990     2.0220     0.4140 h1         1 FFG       0.044700
     65 H30         -7.2610     2.1070     2.9780 h1         1 FFG       0.030700
     66 HN36         6.1040    -4.0440     0.8010 hn         1 FFG       0.476000
     67 HN37         5.6760    -2.5150     4.4640 hn         1 FFG       0.493000
     68 HO42        -5.1820     2.7290     3.8320 ho         1 FFG       0.446000
     69 C31         -6.7200    -0.6590    -0.3290 c3         1 FFG       0.254100
     70 O40          1.0600    -0.6970    -0.9690 o          1 FFG      -0.533000
     71 H26         -6.3430     0.2300     4.1980 hc         1 FFG       0.059700
     72 H31         -6.3190    -0.1280    -1.2010 h1         1 FFG       0.034200
     73 H31A        -7.8130    -0.5560    -0.3840 h1         1 FFG       0.034200
@<TRIPOS>BOND
     1     1    19 ar  
     2     1    20 ar  
     3     1    25 1   
     4     2    13 ar  
     5     2    23 ar  
     6     2    34 1   
     7     3    22 ar  
     8     3    25 ar  
     9     3    69 1   
    10     4     7 2   
    11     4     8 1   
    12     4    26 1   
    13     5     9 1   
    14     5    13 ar  
    15     5    21 ar  
    16     6    12 ar  
    17     6    24 ar  
    18     6    37 1   
    19     7    10 1   
    20     7    34 1   
    21     8    31 1   
    22     8    32 2   
    23     9    33 2   
    24     9    35 1   
    25    10    37 1   
    26    10    70 2   
    27    11    35 1   
    28    11    36 1   
    29    11    39 2   
    30    12    20 ar  
    31    12    44 1   
    32    13    45 1   
    33    14    26 1   
    34    14    37 1   
    35    14    46 1   
    36    14    47 1   
    37    15    16 ar  
    38    15    18 ar  
    39    15    48 1   
    40    16    22 ar  
    41    16    49 1   
    42    17    21 ar  
    43    17    23 ar  
    44    17    50 1   
    45    18    25 ar  
    46    18    51 1   
    47    19    24 ar  
    48    19    52 1   
    49    20    53 1   
    50    21    54 1   
    51    22    55 1   
    52    23    56 1   
    53    24    57 1   
    54    26    58 1   
    55    26    59 1   
    56    27    28 1   
    57    27    30 1   
    58    27    60 1   
    59    27    71 1   
    60    28    38 1   
    61    28    61 1   
    62    28    62 1   
    63    29    30 1   
    64    29    38 1   
    65    29    63 1   
    66    29    64 1   
    67    30    40 1   
    68    30    65 1   
    69    31    41 1   
    70    31    42 1   
    71    31    43 1   
    72    32    34 1   
    73    33    36 1   
    74    35    66 1   
    75    36    67 1   
    76    38    69 1   
    77    40    68 1   
    78    69    72 1   
    79    69    73 1   
@<TRIPOS>SUBSTRUCTURE
     1 FFG         1 TEMP              0 ****  ****    0 ROOT
