@<TRIPOS>MOLECULE
FFG
   73    79     1     0     0
SMALL
abcg2


@<TRIPOS>ATOM
      1 C13         -4.2630    -1.9500    -0.2820 cp         1 FFG      -0.001000
      2 C18          3.4990    -0.0190    -0.8050 ca         1 FFG       0.003800
      3 C17         -6.7610    -2.2240    -0.4850 ca         1 FFG      -0.075300
      4 C16          1.0730     2.4880     0.0330 cc         1 FFG      -0.115300
      5 C15          5.3710    -1.4510    -0.3700 ca         1 FFG      -0.108900
      6 C19         -1.9990    -0.3240    -0.3560 ca         1 FFG      -0.053000
      7 C20          1.3580     1.1970    -0.3320 cd         1 FFG      -0.214600
      8 C21          2.3340     3.0870     0.1450 cc         1 FFG       0.130300
      9 C22          6.4960    -1.8170     0.4830 cc         1 FFG       0.411500
     10 C23          0.3550     0.1190    -0.3850 c          1 FFG       0.606600
     11 C24          8.1710    -2.9930     1.3690 c          1 FFG       0.564000
     12 C11         -2.7200    -0.5670    -1.5180 ca         1 FFG      -0.101000
     13 C12          4.5610    -0.3790     0.0010 ca         1 FFG      -0.043000
     14 C27         -1.2310     2.0140    -0.5680 c6         1 FFG       0.107000
     15 C1          -6.5240    -4.9130     0.2640 ca         1 FFG      -0.109000
     16 C2          -7.7720    -4.3790    -0.0150 ca         1 FFG      -0.107000
     17 C3           4.0220    -1.7710    -2.3400 ca         1 FFG      -0.101000
     18 C4          -5.3990    -4.1040     0.1710 ca         1 FFG      -0.103000
     19 C5          -3.4920    -1.7560     0.8610 ca         1 FFG      -0.090000
     20 C6          -3.8440    -1.3730    -1.4780 ca         1 FFG      -0.090000
     21 C7           5.0940    -2.1470    -1.5430 ca         1 FFG      -0.083000
     22 C8          -7.8800    -3.0430    -0.3780 ca         1 FFG      -0.111000
     23 C9           3.2200    -0.7010    -1.9820 ca         1 FFG      -0.063000
     24 C10         -2.3750    -0.9360     0.8310 ca         1 FFG      -0.101000
     25 C14         -5.4980    -2.7670    -0.2090 cp         1 FFG      -0.022000
     26 C25         -0.3310     2.9200     0.2600 c6         1 FFG      -0.017100
     27 C26         -5.5220     1.3090     1.7820 c5         1 FFG      -0.125400
     28 C28         -6.4570     0.1950     1.3430 c5         1 FFG       0.198800
     29 C29         -5.9130     1.4360    -0.5970 c5         1 FFG       0.198800
     30 C30         -5.6520     2.3130     0.6370 c5         1 FFG       0.156300
     31 C32          2.6290     4.4950     0.5130 c3         1 FFG       0.297700
     32 N33          3.3020     2.2390    -0.1440 nd         1 FFG      -0.439800
     33 N34          6.9800    -1.0630     1.4150 nd         1 FFG      -0.473300
     34 N35          2.7080     1.0940    -0.4260 na         1 FFG       0.279000
     35 N36          7.1840    -2.9940     0.4090 ns         1 FFG      -0.534900
     36 N37          7.9930    -1.7770     1.9510 ns         1 FFG      -0.367400
     37 N38         -0.9130     0.5940    -0.3690 n          1 FFG      -0.236400
     38 N39         -6.1710     0.1150    -0.0680 n3         1 FFG      -0.784600
     39 O41          8.9860    -3.8610     1.6250 o          1 FFG      -0.558000
     40 O42         -4.5250     3.1320     0.4250 oh         1 FFG      -0.660000
     41 F43          2.0000     4.8330     1.6470 f          1 FFG      -0.106333
     42 F44          3.9300     4.7070     0.6880 f          1 FFG      -0.106333
     43 F45          2.2010     5.3490    -0.4260 f          1 FFG      -0.106333
     44 H11         -2.4090    -0.1150    -2.4520 ha         1 FFG       0.119000
     45 H12          4.7530     0.1570     0.9210 ha         1 FFG       0.156000
     46 H27         -2.2710     2.1610    -0.2860 h1         1 FFG       0.065700
     47 H27A        -1.1330     2.2710    -1.6270 h1         1 FFG       0.065700
     48 H1          -6.4210    -5.9500     0.5540 ha         1 FFG       0.115000
     49 H2          -8.6600    -4.9930     0.0610 ha         1 FFG       0.114000
     50 H3           3.8210    -2.3070    -3.2570 ha         1 FFG       0.127000
     51 H4          -4.4220    -4.5210     0.3860 ha         1 FFG       0.119000
     52 H5          -3.7970    -2.2060     1.7970 ha         1 FFG       0.115500
     53 H6          -4.4090    -1.5410    -2.3870 ha         1 FFG       0.115500
     54 H7           5.7130    -2.9750    -1.8620 ha         1 FFG       0.116000
     55 H8          -8.8600    -2.6230    -0.5730 ha         1 FFG       0.110000
     56 H9           2.4030    -0.3920    -2.6190 ha         1 FFG       0.134000
     57 H10         -1.8090    -0.7520     1.7360 ha         1 FFG       0.119000
     58 H25         -0.5810     2.8520     1.3220 hc         1 FFG       0.072200
     59 H25A        -0.4960     3.9540    -0.0440 hc         1 FFG       0.072200
     60 H26A        -4.4990     0.9260     1.8160 hc         1 FFG       0.059700
     61 H28         -6.2370    -0.7520     1.8450 h1         1 FFG       0.037200
     62 H28A        -7.5100     0.4450     1.5630 h1         1 FFG       0.037200
     63 H29         -6.7560     1.8350    -1.1780 h1         1 FFG       0.044700
     64 H29A        -5.0380     1.4200    -1.2580 h1         1 FFG       0.044700
     65 H30         -6.5370     2.9370     0.8190 h1         1 FFG       0.030700
     66 HN36         6.9890    -3.7800    -0.1910 hn         1 FFG       0.476000
     67 HN37         8.5400    -1.3940     2.7050 hn         1 FFG       0.493000
     68 HO42        -4.4010     3.6820     1.2050 ho         1 FFG       0.446000
     69 C31         -6.9430    -0.7750    -0.8790 c3         1 FFG       0.254100
     70 O40          0.6450    -1.0650    -0.3770 o          1 FFG      -0.533000
     71 H26         -5.7740     1.7310     2.7560 hc         1 FFG       0.059700
     72 H31         -6.6250    -0.6440    -1.9180 h1         1 FFG       0.034200
     73 H31A        -8.0220    -0.5410    -0.8680 h1         1 FFG       0.034200
@<TRIPOS>BOND
     1     1    19 ar  
     2     1    20 ar  
     3     1    25 1   
     4     2    13 ar  
     5     2    23 ar  
     6     2    34 1   
     7     3    22 ar  
     8     3    25 ar  
     9     3    69 1   
    10     4     7 2   
    11     4     8 1   
    12     4    26 1   
    13     5     9 1   
    14     5    13 ar  
    15     5    21 ar  
    16     6    12 ar  
    17     6    24 ar  
    18     6    37 1   
    19     7    10 1   
    20     7    34 1   
    21     8    31 1   
    22     8    32 2   
    23     9    33 2   
    24     9    35 1   
    25    10    37 1   
    26    10    70 2   
    27    11    35 1   
    28    11    36 1   
    29    11    39 2   
    30    12    20 ar  
    31    12    44 1   
    32    13    45 1   
    33    14    26 1   
    34    14    37 1   
    35    14    46 1   
    36    14    47 1   
    37    15    16 ar  
    38    15    18 ar  
    39    15    48 1   
    40    16    22 ar  
    41    16    49 1   
    42    17    21 ar  
    43    17    23 ar  
    44    17    50 1   
    45    18    25 ar  
    46    18    51 1   
    47    19    24 ar  
    48    19    52 1   
    49    20    53 1   
    50    21    54 1   
    51    22    55 1   
    52    23    56 1   
    53    24    57 1   
    54    26    58 1   
    55    26    59 1   
    56    27    28 1   
    57    27    30 1   
    58    27    60 1   
    59    27    71 1   
    60    28    38 1   
    61    28    61 1   
    62    28    62 1   
    63    29    30 1   
    64    29    38 1   
    65    29    63 1   
    66    29    64 1   
    67    30    40 1   
    68    30    65 1   
    69    31    41 1   
    70    31    42 1   
    71    31    43 1   
    72    32    34 1   
    73    33    36 1   
    74    35    66 1   
    75    36    67 1   
    76    38    69 1   
    77    40    68 1   
    78    69    72 1   
    79    69    73 1   
@<TRIPOS>SUBSTRUCTURE
     1 FFG         1 TEMP              0 ****  ****    0 ROOT
