@<TRIPOS>MOLECULE
FFH
   90    91     1     0     0
SMALL
bcc


@<TRIPOS>ATOM
      1 C1         -10.8110     3.3460     0.6610 ca         1 FFH       0.007500
      2 C2         -12.7170     1.9760     0.1260 ca         1 FFH       0.007500
      3 C4         -10.5110     0.9870     0.2680 ca         1 FFH       0.150600
      4 C9          -8.4190    -0.3570     0.2880 c          1 FFH       0.800100
      5 C11         -6.7270    -2.1220     0.3000 ca         1 FFH       0.023600
      6 C12         -6.4680    -3.2390     1.0930 ca         1 FFH      -0.103500
      7 C13         -5.1890    -3.7500     1.2030 ca         1 FFH      -0.173500
      8 C14         -4.1250    -3.1400     0.5370 ca         1 FFH       0.140100
      9 C16         -5.6710    -1.5290    -0.3790 ca         1 FFH      -0.103500
     10 O9          -7.6310     0.5540     0.4590 o          1 FFH      -0.595100
     11 N4          -9.7800    -0.1820     0.1700 ns         1 FFH      -0.488100
     12 C3         -11.8930     0.8760     0.0470 ca         1 FFH      -0.203000
     13 C          -12.1720     3.2180     0.4350 ca         1 FFH      -0.316500
     14 S8         -13.2310     4.6190     0.5440 sy         1 FFH       1.273200
     15 N10        -13.5130     4.9380    -1.0550 n8         1 FFH      -0.889700
     16 O6         -14.5200     4.2180     1.0930 o          1 FFH      -0.618300
     17 O7         -12.5030     5.6890     1.2130 o          1 FFH      -0.618300
     18 C5          -9.9770     2.2420     0.5770 ca         1 FFH      -0.203000
     19 N9          -8.0510    -1.6650     0.1760 ns         1 FFH      -0.491100
     20 C15         -4.3780    -2.0240    -0.2560 ca         1 FFH      -0.173500
     21 O14         -2.9090    -3.6920     0.7140 os         1 FFH      -0.323900
     22 H1         -10.3780     4.3060     0.9090 ha         1 FFH       0.155000
     23 H2         -13.7770     1.8570    -0.0490 ha         1 FFH       0.155000
     24 H3          -7.2770    -3.7160     1.6320 ha         1 FFH       0.141000
     25 H4          -5.0070    -4.6210     1.8190 ha         1 FFH       0.143500
     26 H5          -5.8390    -0.6780    -1.0250 ha         1 FFH       0.141000
     27 H6         -10.3290    -1.0040    -0.0340 hn         1 FFH       0.316500
     28 H7         -12.3220    -0.0890    -0.1920 ha         1 FFH       0.152500
     29 H8         -14.3050     5.5640    -1.1700 hn         1 FFH       0.414800
     30 H9         -12.6980     5.3200    -1.5250 hn         1 FFH       0.414800
     31 H10         -8.9240     2.3710     0.7540 ha         1 FFH       0.152500
     32 H11         -8.7680    -2.3730     0.2100 hn         1 FFH       0.315500
     33 H12         -3.5870    -1.5270    -0.8000 ha         1 FFH       0.143500
     34 C6          -1.7940    -3.1160     0.0540 c3         1 FFH       0.142400
     35 C7          -0.5530    -3.8810     0.4620 c3         1 FFH      -0.080400
     36 C8           0.6850    -3.3320    -0.2360 c3         1 FFH      -0.096400
     37 C10          1.9530    -4.0290     0.2370 c3         1 FFH       0.099000
     38 N1           3.1270    -3.4950    -0.4150 ns         1 FFH      -0.574900
     39 C17          4.0840    -4.2330    -0.9970 c          1 FFH       0.670100
     40 O1           4.0810    -5.4580    -1.0070 o          1 FFH      -0.607100
     41 H13         -1.9310    -3.1600    -1.0330 h1         1 FFH       0.035200
     42 H14         -1.6890    -2.0610     0.3300 h1         1 FFH       0.035200
     43 H15         -0.4270    -3.8130     1.5460 hc         1 FFH       0.059200
     44 H16         -0.6750    -4.9410     0.2180 hc         1 FFH       0.059200
     45 H17          0.5910    -3.4520    -1.3190 hc         1 FFH       0.044700
     46 H18          0.7680    -2.2570    -0.0450 hc         1 FFH       0.044700
     47 H19          2.0480    -3.9250     1.3230 h1         1 FFH       0.059200
     48 H20          1.8990    -5.0960     0.0230 h1         1 FFH       0.059200
     49 H21          3.2350    -2.4930    -0.4150 hn         1 FFH       0.311500
     50 C18          5.1850    -3.4410    -1.6690 c3         1 FFH      -0.163400
     51 C19          6.5590    -3.9220    -1.2380 c3         1 FFH       0.146400
     52 O2           7.5210    -3.1760    -1.9390 os         1 FFH      -0.408600
     53 C21          8.8400    -3.4880    -1.5650 c3         1 FFH       0.141400
     54 C22          9.8000    -2.6410    -2.3600 c3         1 FFH       0.138400
     55 O3           9.6100    -1.2880    -2.0370 os         1 FFH      -0.390600
     56 C24         10.4600    -0.4270    -2.7510 c3         1 FFH       0.138400
     57 C25         10.1200     1.0040    -2.4200 c3         1 FFH       0.139400
     58 O4          10.3950     1.2560    -1.0660 os         1 FFH      -0.388600
     59 C27         10.0240     2.5490    -0.6640 c3         1 FFH       0.139400
     60 C28         10.3090     2.7260     0.8050 c3         1 FFH       0.138400
     61 O5          11.6950     2.7030     1.0280 os         1 FFH      -0.387600
     62 C30         12.0270     2.7720     2.3930 c3         1 FFH       0.138400
     63 C31         13.5250     2.8180     2.5530 c3         1 FFH       0.139400
     64 O8          14.0150     4.0380     2.0550 os         1 FFH      -0.402600
     65 C33         15.4060     4.1950     2.2080 c3         1 FFH       0.373600
     66 N2          16.1580     3.2930     1.3800 n8         1 FFH      -0.951800
     67 H22          5.0760    -3.5740    -2.7490 hc         1 FFH       0.070200
     68 H23          5.0880    -2.3720    -1.4650 hc         1 FFH       0.070200
     69 H24          6.6790    -3.7890    -0.1530 h1         1 FFH       0.034200
     70 H25          6.6680    -4.9950    -1.4440 h1         1 FFH       0.034200
     71 H26          8.9920    -3.3210    -0.4890 h1         1 FFH       0.031700
     72 H27          9.0690    -4.5450    -1.7600 h1         1 FFH       0.031700
     73 H28         10.8220    -2.9690    -2.1240 h1         1 FFH       0.028200
     74 H29          9.6510    -2.8140    -3.4360 h1         1 FFH       0.028200
     75 H30         11.5160    -0.6290    -2.5180 h1         1 FFH       0.029200
     76 H31         10.3420    -0.5620    -3.8350 h1         1 FFH       0.029200
     77 H32         10.7120     1.6580    -3.0750 h1         1 FFH       0.027700
     78 H33          9.0620     1.1960    -2.6500 h1         1 FFH       0.027700
     79 H34         10.5590     3.3150    -1.2440 h1         1 FFH       0.027200
     80 H35          8.9500     2.7200    -0.8270 h1         1 FFH       0.027200
     81 H36          9.8710     3.6810     1.1280 h1         1 FFH       0.027200
     82 H37          9.8020     1.9360     1.3790 h1         1 FFH       0.027200
     83 H38         11.5720     3.6540     2.8660 h1         1 FFH       0.024700
     84 H39         11.6490     1.8920     2.9320 h1         1 FFH       0.024700
     85 H40         13.7550     2.7110     3.6230 h1         1 FFH       0.036700
     86 H41         13.9830     1.9630     2.0420 h1         1 FFH       0.036700
     87 H42         15.5930     5.2490     1.9790 h2         1 FFH       0.030200
     88 H43         15.6940     4.0230     3.2530 h2         1 FFH       0.030200
     89 H44         16.4040     3.7100     0.4940 hn         1 FFH       0.358300
     90 H45         17.0130     3.0070     1.8320 hn         1 FFH       0.358300
@<TRIPOS>BOND
     1     1    13 ar  
     2     1    18 ar  
     3     1    22 1   
     4     2    12 ar  
     5     2    13 ar  
     6     2    23 1   
     7     3    11 1   
     8     3    12 ar  
     9     3    18 ar  
    10     4    10 2   
    11     4    11 1   
    12     4    19 1   
    13     5     6 ar  
    14     5     9 ar  
    15     5    19 1   
    16     6     7 ar  
    17     6    24 1   
    18     7     8 ar  
    19     7    25 1   
    20     8    20 ar  
    21     8    21 1   
    22     9    20 ar  
    23     9    26 1   
    24    11    27 1   
    25    12    28 1   
    26    13    14 1   
    27    14    15 1   
    28    14    16 2   
    29    14    17 2   
    30    15    29 1   
    31    15    30 1   
    32    18    31 1   
    33    19    32 1   
    34    20    33 1   
    35    21    34 1   
    36    34    35 1   
    37    34    41 1   
    38    34    42 1   
    39    35    36 1   
    40    35    43 1   
    41    35    44 1   
    42    36    37 1   
    43    36    45 1   
    44    36    46 1   
    45    37    38 1   
    46    37    47 1   
    47    37    48 1   
    48    38    39 1   
    49    38    49 1   
    50    39    40 2   
    51    39    50 1   
    52    50    51 1   
    53    50    67 1   
    54    50    68 1   
    55    51    52 1   
    56    51    69 1   
    57    51    70 1   
    58    52    53 1   
    59    53    54 1   
    60    53    71 1   
    61    53    72 1   
    62    54    55 1   
    63    54    73 1   
    64    54    74 1   
    65    55    56 1   
    66    56    57 1   
    67    56    75 1   
    68    56    76 1   
    69    57    58 1   
    70    57    77 1   
    71    57    78 1   
    72    58    59 1   
    73    59    60 1   
    74    59    79 1   
    75    59    80 1   
    76    60    61 1   
    77    60    81 1   
    78    60    82 1   
    79    61    62 1   
    80    62    63 1   
    81    62    83 1   
    82    62    84 1   
    83    63    64 1   
    84    63    85 1   
    85    63    86 1   
    86    64    65 1   
    87    65    66 1   
    88    65    87 1   
    89    65    88 1   
    90    66    89 1   
    91    66    90 1   
@<TRIPOS>SUBSTRUCTURE
     1 FFH         1 TEMP              0 ****  ****    0 ROOT
