@<TRIPOS>MOLECULE
FFH
   90    91     1     0     0
SMALL
No Charge or Current Charge


@<TRIPOS>ATOM
      1 C1         -13.0650     1.5160    -1.7340 ca         1 FFH       0.025500
      2 C2         -14.3060     0.4100     0.0450 ca         1 FFH       0.025500
      3 C4         -11.8700     0.1960    -0.0550 ca         1 FFH       0.058000
      4 C9          -9.3550    -0.2690     0.1980 c          1 FFH       0.666100
      5 C11         -7.1590    -1.2040     1.1680 ca         1 FFH      -0.069000
      6 C12         -6.6910    -2.0660     2.1780 ca         1 FFH      -0.085500
      7 C13         -5.3160    -2.3220     2.3210 ca         1 FFH      -0.155500
      8 C14         -4.3880    -1.7210     1.4590 ca         1 FFH       0.140100
      9 C16         -6.2230    -0.5960     0.3020 ca         1 FFH      -0.085500
     10 O9          -8.9190     0.3620    -0.7580 o          1 FFH      -0.595100
     11 N4         -10.6980    -0.3550     0.5330 ns         1 FFH      -0.162000
     12 C3         -13.1010    -0.0950     0.5620 ca         1 FFH      -0.185000
     13 C          -14.2900     1.2170    -1.1080 ca         1 FFH      -0.316500
     14 S8         -15.8250     1.8610    -1.7680 sy         1 FFH       1.131600
     15 N10        -16.3060     0.6300    -2.7290 n8         1 FFH      -1.000100
     16 O6         -16.8410     1.9480    -0.7190 o          1 FFH      -0.547500
     17 O7         -15.5510     2.9480    -2.7040 o          1 FFH      -0.547500
     18 C5         -11.8640     1.0070    -1.2100 ca         1 FFH      -0.185000
     19 N9          -8.5660    -0.9920     1.0840 ns         1 FFH      -0.165000
     20 C15         -4.8470    -0.8520     0.4460 ca         1 FFH      -0.155500
     21 O14         -3.0520    -2.0100     1.6450 os         1 FFH      -0.347100
     22 H1         -13.0330     2.1420    -2.6250 ha         1 FFH       0.137000
     23 H2         -15.2450     0.1680     0.5410 ha         1 FFH       0.137000
     24 H3          -7.3950    -2.5430     2.8580 ha         1 FFH       0.123000
     25 H4          -4.9680    -2.9910     3.1040 ha         1 FFH       0.125500
     26 H5          -6.5360     0.0800    -0.4870 ha         1 FFH       0.123000
     27 H6         -10.8850    -0.9160     1.3520 hn         1 FFH       0.150000
     28 H7         -13.1280    -0.7180     1.4530 ha         1 FFH       0.134500
     29 H8         -16.4530     1.1200    -3.6080 hn         1 FFH       0.470000
     30 H9         -15.4380     0.1210    -2.8740 hn         1 FFH       0.470000
     31 H10        -10.9400     1.2590    -1.7200 ha         1 FFH       0.134500
     32 H11         -9.0890    -1.4610     1.8110 hn         1 FFH       0.149000
     33 H12         -4.1540    -0.3690    -0.2370 ha         1 FFH       0.125500
     34 C6          -2.0230    -1.4460     0.8150 c3         1 FFH       0.165600
     35 C7          -0.6710    -1.9970     1.3080 c3         1 FFH      -0.080400
     36 C8           0.5300    -1.4650     0.4940 c3         1 FFH      -0.096400
     37 C10          1.8820    -2.0220     0.9850 c3         1 FFH       0.099000
     38 N1           3.0110    -1.4900     0.2170 ns         1 FFH      -0.507900
     39 C17          3.3910    -1.9310    -1.0310 c          1 FFH       0.603100
     40 O1           2.8050    -2.8320    -1.6140 o          1 FFH      -0.607100
     41 H13         -2.1730    -1.7300    -0.2350 h1         1 FFH       0.035200
     42 H14         -2.0220    -0.3500     0.8880 h1         1 FFH       0.035200
     43 H15         -0.5400    -1.7290     2.3640 hc         1 FFH       0.059200
     44 H16         -0.6900    -3.0920     1.2510 hc         1 FFH       0.059200
     45 H17          0.3920    -1.7250    -0.5630 hc         1 FFH       0.044700
     46 H18          0.5510    -0.3690     0.5550 hc         1 FFH       0.044700
     47 H19          2.0240    -1.7590     2.0420 h1         1 FFH       0.059200
     48 H20          1.8800    -3.1180     0.9090 h1         1 FFH       0.059200
     49 H21          3.5520    -0.7330     0.6180 hn         1 FFH       0.311500
     50 C18          4.5750    -1.1930    -1.6470 c3         1 FFH      -0.163400
     51 C19          5.8230    -2.0850    -1.6320 c3         1 FFH       0.169600
     52 O2           6.9000    -1.3240    -2.1980 os         1 FFH      -0.455000
     53 C21          8.1600    -2.0250    -2.2610 c3         1 FFH       0.164600
     54 C22          9.2320    -1.0870    -2.8660 c3         1 FFH       0.161600
     55 O3           9.5690    -0.0710    -1.9000 os         1 FFH      -0.437000
     56 C24         10.5610     0.8730    -2.3480 c3         1 FFH       0.161600
     57 C25         10.8360     1.8930    -1.2170 c3         1 FFH       0.162600
     58 O4          11.5700     1.2400    -0.1620 os         1 FFH      -0.435000
     59 C27         11.8780     2.0870     0.9630 c3         1 FFH       0.162600
     60 C28         12.6660     1.2660     2.0130 c3         1 FFH       0.161600
     61 O5          13.9990     1.0260     1.5210 os         1 FFH      -0.434000
     62 C30         14.8320     0.2540     2.4090 c3         1 FFH       0.161600
     63 C31         16.2320     0.0790     1.7720 c3         1 FFH       0.162600
     64 O8          16.9330     1.3420     1.8130 os         1 FFH      -0.449000
     65 C33         18.2740     1.3090     1.3330 c3         1 FFH       0.396800
     66 N2          18.2630     1.1860    -0.1200 n8         1 FFH      -1.062200
     67 H22          4.3370    -0.9470    -2.6880 hc         1 FFH       0.070200
     68 H23          4.7910    -0.2790    -1.0810 hc         1 FFH       0.070200
     69 H24          6.0560    -2.3790    -0.6000 h1         1 FFH       0.034200
     70 H25          5.6370    -2.9950    -2.2200 h1         1 FFH       0.034200
     71 H26          8.4800    -2.3520    -1.2630 h1         1 FFH       0.031700
     72 H27          8.0670    -2.9140    -2.8980 h1         1 FFH       0.031700
     73 H28         10.1210    -1.6820    -3.1160 h1         1 FFH       0.028200
     74 H29          8.8480    -0.6400    -3.7920 h1         1 FFH       0.028200
     75 H30         11.4960     0.3650    -2.6190 h1         1 FFH       0.029200
     76 H31         10.1980     1.4140    -3.2320 h1         1 FFH       0.029200
     77 H32         11.4210     2.7270    -1.6260 h1         1 FFH       0.027700
     78 H33          9.8830     2.2940    -0.8450 h1         1 FFH       0.027700
     79 H34         12.4730     2.9550     0.6530 h1         1 FFH       0.027200
     80 H35         10.9520     2.4550     1.4250 h1         1 FFH       0.027200
     81 H36         12.7050     1.8360     2.9500 h1         1 FFH       0.027200
     82 H37         12.1410     0.3220     2.2100 h1         1 FFH       0.027200
     83 H38         14.9320     0.7490     3.3840 h1         1 FFH       0.024700
     84 H39         14.3920    -0.7380     2.5740 h1         1 FFH       0.024700
     85 H40         16.7830    -0.6800     2.3440 h1         1 FFH       0.036700
     86 H41         16.1200    -0.2860     0.7430 h1         1 FFH       0.036700
     87 H42         18.7900     2.2400     1.6030 h2         1 FFH       0.030200
     88 H43         18.8310     0.4730     1.7760 h2         1 FFH       0.030200
     89 H44         17.7780     2.0110    -0.4860 hn         1 FFH       0.413500
     90 H45         19.2270     1.3060    -0.4510 hn         1 FFH       0.413500
@<TRIPOS>BOND
     1     1    13 ar  
     2     1    18 ar  
     3     1    22 1   
     4     2    12 ar  
     5     2    13 ar  
     6     2    23 1   
     7     3    11 1   
     8     3    12 ar  
     9     3    18 ar  
    10     4    10 2   
    11     4    11 1   
    12     4    19 1   
    13     5     6 ar  
    14     5     9 ar  
    15     5    19 1   
    16     6     7 ar  
    17     6    24 1   
    18     7     8 ar  
    19     7    25 1   
    20     8    20 ar  
    21     8    21 1   
    22     9    20 ar  
    23     9    26 1   
    24    11    27 1   
    25    12    28 1   
    26    13    14 1   
    27    14    15 1   
    28    14    16 2   
    29    14    17 2   
    30    15    29 1   
    31    15    30 1   
    32    18    31 1   
    33    19    32 1   
    34    20    33 1   
    35    21    34 1   
    36    34    35 1   
    37    34    41 1   
    38    34    42 1   
    39    35    36 1   
    40    35    43 1   
    41    35    44 1   
    42    36    37 1   
    43    36    45 1   
    44    36    46 1   
    45    37    38 1   
    46    37    47 1   
    47    37    48 1   
    48    38    39 1   
    49    38    49 1   
    50    39    40 2   
    51    39    50 1   
    52    50    51 1   
    53    50    67 1   
    54    50    68 1   
    55    51    52 1   
    56    51    69 1   
    57    51    70 1   
    58    52    53 1   
    59    53    54 1   
    60    53    71 1   
    61    53    72 1   
    62    54    55 1   
    63    54    73 1   
    64    54    74 1   
    65    55    56 1   
    66    56    57 1   
    67    56    75 1   
    68    56    76 1   
    69    57    58 1   
    70    57    77 1   
    71    57    78 1   
    72    58    59 1   
    73    59    60 1   
    74    59    79 1   
    75    59    80 1   
    76    60    61 1   
    77    60    81 1   
    78    60    82 1   
    79    61    62 1   
    80    62    63 1   
    81    62    83 1   
    82    62    84 1   
    83    63    64 1   
    84    63    85 1   
    85    63    86 1   
    86    64    65 1   
    87    65    66 1   
    88    65    87 1   
    89    65    88 1   
    90    66    89 1   
    91    66    90 1   
@<TRIPOS>SUBSTRUCTURE
     1 FFH         1 TEMP              0 ****  ****    0 ROOT
