@<TRIPOS>MOLECULE
FFJ
   42    43     1     0     0
SMALL
No Charge or Current Charge


@<TRIPOS>ATOM
      1 C4          -7.1160    -2.4790    -1.7980 cc         1 FFJ       0.732500
      2 N4          -8.0140    -3.4260    -1.9820 nv         1 FFJ      -1.067200
      3 C5          -7.2410    -1.2750    -2.5160 cc         1 FFJ      -0.500600
      4 C6          -6.2880    -0.3020    -2.3230 cd         1 FFJ      -0.057400
      5 N3          -6.1770    -2.7520    -0.9640 nd         1 FFJ      -0.800100
      6 C2          -5.1840    -1.7920    -0.7280 c          1 FFJ       0.725400
      7 O2          -4.3280    -2.0700     0.0980 o          1 FFJ      -0.559000
      8 N1          -5.2460    -0.5570    -1.4310 n          1 FFJ      -0.314000
      9 C1          -4.1900     0.4790    -1.2670 c5         1 FFJ       0.346700
     10 C9          -4.5220     1.3070     0.0160 c5         1 FFJ      -0.146400
     11 C3          -3.3200     0.9790     0.9420 c5         1 FFJ       0.118300
     12 O3          -3.0440     2.0460     1.8550 oh         1 FFJ      -0.711000
     13 O4          -2.8680    -0.0630    -1.0980 os         1 FFJ      -0.387000
     14 C7          -2.2020     0.7620    -0.1200 c5         1 FFJ       0.173300
     15 C8          -0.9330     0.0500     0.4330 c3         1 FFJ       0.231600
     16 O5           0.0310    -0.1720    -0.6100 os         1 FFJ      -0.556400
     17 PA           1.0900     0.9730    -1.0240 p5         1 FFJ       1.469800
     18 O1A          0.4400     2.3160    -1.0660 o          1 FFJ      -0.870000
     19 O2A          1.7090     0.5980    -2.3310 o          1 FFJ      -0.870000
     20 O3A          2.0370     0.7870     0.2200 os         1 FFJ      -0.699800
     21 PB           3.5140     1.3100    -0.0080 p5         1 FFJ       1.487400
     22 O1B          4.3880     0.3250    -0.7230 o          1 FFJ      -0.833000
     23 O2B          3.5400     2.6570    -0.6690 o          1 FFJ      -0.833000
     24 C3B          4.0040     1.6010     1.7400 c3         1 FFJ      -0.385000
     25 F3B          5.0650     2.4560     1.8230 f          1 FFJ      -0.141000
     26 F4B          2.9840     2.1550     2.4580 f          1 FFJ      -0.141000
     27 PG           4.4510    -0.0630     2.3640 p5         1 FFJ       1.279500
     28 O2G          4.5270     0.0480     3.8520 o          1 FFJ      -0.898833
     29 O1G          3.4560    -1.1190     2.0150 o          1 FFJ      -0.898833
     30 O3G          5.8140    -0.4410     1.8820 o          1 FFJ      -0.898833
     31 H1          -8.5040    -3.3950    -2.8660 hn         1 FFJ       0.472500
     32 H2          -7.7180    -4.3410    -1.6660 hn         1 FFJ       0.472500
     33 H3          -8.0720    -1.1320    -3.1990 ha         1 FFJ       0.161000
     34 H4          -6.2640     0.6720    -2.8090 h4         1 FFJ       0.171000
     35 H5          -4.2170     1.1200    -2.1580 h2         1 FFJ       0.022700
     36 H6          -4.5680     2.3750    -0.2290 hc         1 FFJ       0.033200
     37 H7          -5.4820     1.0410     0.4750 hc         1 FFJ       0.033200
     38 H8          -3.4980     0.0400     1.4880 h1         1 FFJ       0.076700
     39 H9          -3.8450     2.1580     2.4170 ho         1 FFJ       0.469000
     40 H10         -1.9300     1.7170    -0.5870 h1         1 FFJ       0.054700
     41 H11         -0.5030     0.6630     1.2370 h1         1 FFJ       0.020700
     42 H12         -1.2310    -0.9100     0.8780 h1         1 FFJ       0.020700
@<TRIPOS>BOND
     1     1     2 1   
     2     1     3 1   
     3     1     5 2   
     4     2    31 1   
     5     2    32 1   
     6     3     4 2   
     7     3    33 1   
     8     4     8 1   
     9     4    34 1   
    10     5     6 1   
    11     6     7 2   
    12     6     8 1   
    13     8     9 1   
    14     9    10 1   
    15     9    13 1   
    16     9    35 1   
    17    10    11 1   
    18    10    36 1   
    19    10    37 1   
    20    11    12 1   
    21    11    14 1   
    22    11    38 1   
    23    12    39 1   
    24    13    14 1   
    25    14    15 1   
    26    14    40 1   
    27    15    16 1   
    28    15    41 1   
    29    15    42 1   
    30    16    17 1   
    31    17    18 1   
    32    17    19 1   
    33    17    20 1   
    34    20    21 1   
    35    21    22 1   
    36    21    23 1   
    37    21    24 1   
    38    24    25 1   
    39    24    26 1   
    40    24    27 1   
    41    27    28 1   
    42    27    29 1   
    43    27    30 1   
@<TRIPOS>SUBSTRUCTURE
     1 FFJ         1 TEMP              0 ****  ****    0 ROOT
