@<TRIPOS>MOLECULE
FFJ
   42    43     1     0     0
SMALL
abcg2


@<TRIPOS>ATOM
      1 C4          -5.6690    -2.8630     0.2290 cc         1 FFJ       0.732500
      2 N4          -6.0650    -4.0090     0.7810 nv         1 FFJ      -1.067200
      3 C5          -5.6250    -2.7440    -1.1940 cc         1 FFJ      -0.500600
      4 C6          -5.2120    -1.5570    -1.6790 cd         1 FFJ      -0.057400
      5 N3          -5.3270    -1.8700     1.0260 nd         1 FFJ      -0.800100
      6 C2          -4.9200    -0.6830     0.5290 c          1 FFJ       0.725400
      7 O2          -4.5990     0.2520     1.2490 o          1 FFJ      -0.559000
      8 N1          -4.8710    -0.5270    -0.8660 n          1 FFJ      -0.314000
      9 C1          -4.4010     0.7180    -1.4650 c5         1 FFJ       0.346700
     10 C9          -5.1450     1.9900    -1.0520 c5         1 FFJ      -0.146400
     11 C3          -4.1190     2.8120    -0.2720 c5         1 FFJ       0.118300
     12 O3          -4.1340     4.1910    -0.5490 oh         1 FFJ      -0.711000
     13 O4          -3.0470     0.9000    -1.1600 os         1 FFJ      -0.387000
     14 C7          -2.7860     2.2300    -0.7470 c5         1 FFJ       0.173300
     15 C8          -1.7300     2.2370     0.3310 c3         1 FFJ       0.231600
     16 O5          -0.5160     1.7480    -0.1920 os         1 FFJ      -0.556400
     17 PA           0.8180     1.8600     0.7810 p5         1 FFJ       1.469800
     18 O1A          0.5290     1.1590     2.0720 o          1 FFJ      -0.870000
     19 O2A          1.2900     3.2830     0.7910 o          1 FFJ      -0.870000
     20 O3A          1.7350     0.9570    -0.2170 os         1 FFJ      -0.699800
     21 PB           3.3360     0.5560     0.0220 p5         1 FFJ       1.487400
     22 O1B          4.0510     0.9360    -1.2410 o          1 FFJ      -0.833000
     23 O2B          3.7690     1.0910     1.3540 o          1 FFJ      -0.833000
     24 C3B          3.1680    -1.2840     0.0860 c3         1 FFJ      -0.385000
     25 F3B          2.5280    -1.5890     1.2770 f          1 FFJ      -0.141000
     26 F4B          2.2690    -1.6780    -0.8960 f          1 FFJ      -0.141000
     27 PG           4.7510    -2.2920    -0.0750 p5         1 FFJ       1.279500
     28 O2G          4.3690    -3.6640     0.4810 o          1 FFJ      -0.898833
     29 O1G          5.0450    -2.2840    -1.5720 o          1 FFJ      -0.898833
     30 O3G          5.7410    -1.5090     0.7840 o          1 FFJ      -0.898833
     31 H1          -6.3230    -4.8020     0.2210 hn         1 FFJ       0.472500
     32 H2          -6.0770    -4.1120     1.7820 hn         1 FFJ       0.472500
     33 H3          -5.8960    -3.5550    -1.8510 ha         1 FFJ       0.161000
     34 H4          -5.1370    -1.3740    -2.7420 h4         1 FFJ       0.171000
     35 H5          -4.5190     0.5600    -2.5410 h2         1 FFJ       0.022700
     36 H6          -5.4280     2.5360    -1.9540 hc         1 FFJ       0.033200
     37 H7          -6.0560     1.7870    -0.4920 hc         1 FFJ       0.033200
     38 H8          -4.2400     2.6330     0.8000 h1         1 FFJ       0.076700
     39 H9          -4.8710     4.5860    -0.0740 ho         1 FFJ       0.469000
     40 H10         -2.4370     2.8210    -1.6070 h1         1 FFJ       0.054700
     41 H11         -1.6280     3.2700     0.6890 h1         1 FFJ       0.020700
     42 H12         -2.0750     1.6290     1.1750 h1         1 FFJ       0.020700
@<TRIPOS>BOND
     1     1     2 1   
     2     1     3 1   
     3     1     5 2   
     4     2    31 1   
     5     2    32 1   
     6     3     4 2   
     7     3    33 1   
     8     4     8 1   
     9     4    34 1   
    10     5     6 1   
    11     6     7 2   
    12     6     8 1   
    13     8     9 1   
    14     9    10 1   
    15     9    13 1   
    16     9    35 1   
    17    10    11 1   
    18    10    36 1   
    19    10    37 1   
    20    11    12 1   
    21    11    14 1   
    22    11    38 1   
    23    12    39 1   
    24    13    14 1   
    25    14    15 1   
    26    14    40 1   
    27    15    16 1   
    28    15    41 1   
    29    15    42 1   
    30    16    17 1   
    31    17    18 1   
    32    17    19 1   
    33    17    20 1   
    34    20    21 1   
    35    21    22 1   
    36    21    23 1   
    37    21    24 1   
    38    24    25 1   
    39    24    26 1   
    40    24    27 1   
    41    27    28 1   
    42    27    29 1   
    43    27    30 1   
@<TRIPOS>SUBSTRUCTURE
     1 FFJ         1 TEMP              0 ****  ****    0 ROOT
