@<TRIPOS>MOLECULE
FFK
   90    90     1     0     0
SMALL
bcc


@<TRIPOS>ATOM
      1 C13         -0.0320    -3.0250     0.9420 c3         1 FFK      -0.177100
      2 C24         -0.7710     1.6240     1.0690 c3         1 FFK       0.224600
      3 C26         -2.6640     1.1810     2.6850 c2         1 FFK      -0.169400
      4 C28         -3.1580     0.5190     3.9370 c3         1 FFK      -0.039900
      5 C01          4.3700     1.1540     2.0130 c6         1 FFK       0.086100
      6 C02          2.9390     0.6440     1.8800 c6         1 FFK       0.127100
      7 C03          2.9700    -0.8330     1.5160 c6         1 FFK       0.070700
      8 C04          3.8020    -1.0300     0.2410 c6         1 FFK       0.394900
      9 C06          5.1730     0.8470     0.7440 c6         1 FFK       0.131100
     10 C07          6.6390     1.1790     0.9240 c3         1 FFK       0.144400
     11 C12          1.3640    -2.6630     1.3720 c          1 FFK       0.691100
     12 C25         -1.3920     1.0560     2.3020 c2         1 FFK      -0.122200
     13 C27         -3.7070     1.9360     1.9040 c3         1 FFK      -0.022200
     14 C29         -4.5260     1.0120     0.9890 c3         1 FFK      -0.040200
     15 C30         -5.5670     1.7600     0.2170 c2         1 FFK      -0.185200
     16 C31         -5.6120     1.9340    -1.1070 c2         1 FFK      -0.103400
     17 C32         -4.6010     1.3470    -2.0580 c3         1 FFK      -0.056200
     18 C33         -6.7360     2.6950    -1.7500 c3         1 FFK      -0.049900
     19 C34         -5.0070    -0.0610    -2.5300 c3         1 FFK      -0.013200
     20 C35         -3.9870    -0.6650    -3.4500 c2         1 FFK      -0.220200
     21 C36         -2.9570    -1.4170    -3.0560 c2         1 FFK      -0.027400
     22 C37         -1.9290    -1.9290    -4.0160 c3         1 FFK      -0.058900
     23 C38         -2.7590    -1.8130    -1.6170 c3         1 FFK      -0.051200
     24 C39         -3.6050    -3.0330    -1.2220 c3         1 FFK      -0.040200
     25 C40         -3.5550    -3.2910     0.2510 c2         1 FFK      -0.138200
     26 C41         -3.2010    -4.4050     0.8960 c2         1 FFK      -0.144400
     27 C42         -2.7640    -5.6770     0.2330 c3         1 FFK      -0.046400
     28 C43         -3.2060    -4.4580     2.3960 c3         1 FFK      -0.046400
     29 N14          1.6390    -1.3490     1.3550 ns         1 FFK      -0.556900
     30 O05          5.0930    -0.5340     0.4270 os         1 FFK      -0.417600
     31 O09          4.3010     2.5460     2.2450 oh         1 FFK      -0.595800
     32 O10          2.2270     0.7910     3.0860 oh         1 FFK      -0.607800
     33 O11          2.1870    -3.5140     1.6980 o          1 FFK      -0.670100
     34 O17          2.6420    -0.3980    -3.2850 o          1 FFK      -0.844000
     35 O18          2.3220    -2.5550    -1.8490 o          1 FFK      -0.844000
     36 O19          0.7710    -0.6030    -1.5610 os         1 FFK      -0.717800
     37 O21         -1.0300     1.0980    -2.1670 o          1 FFK      -0.843000
     38 O22          1.2330     1.9330    -1.2250 o          1 FFK      -0.843000
     39 O23         -0.3460     0.5430     0.2510 os         1 FFK      -0.586200
     40 P20          0.1600     0.8900    -1.2870 p5         1 FFK       1.455800
     41 H1          -0.0010    -3.2900    -0.1160 hc         1 FFK       0.060367
     42 H2          -0.3880    -3.8900     1.4970 hc         1 FFK       0.060367
     43 H3          -0.7500    -2.2140     1.0460 hc         1 FFK       0.060367
     44 H4          -1.4730     2.2640     0.5270 h1         1 FFK       0.024700
     45 H5           0.0900     2.2460     1.3410 h1         1 FFK       0.024700
     46 H6          -3.9630    -0.1870     3.7190 hc         1 FFK       0.022033
     47 H7          -2.3680    -0.0280     4.4500 hc         1 FFK       0.022033
     48 H8          -3.5730     1.2540     4.6310 hc         1 FFK       0.022033
     49 H9           4.8390     0.6380     2.8630 h1         1 FFK       0.018700
     50 H10          2.4480     1.2000     1.0660 h1         1 FFK       0.117700
     51 H11          3.4690    -1.3870     2.3190 h1         1 FFK       0.056700
     52 H12          3.9140    -2.0980     0.0370 h2         1 FFK       0.101700
     53 H13          4.7710     1.4560    -0.0770 h1         1 FFK       0.114700
     54 H14          6.7190     2.2190     1.2620 h1         1 FFK      -0.001300
     55 H15          7.0540     0.5470     1.7220 h1         1 FFK      -0.001300
     56 H16         -0.7170     0.4710     2.9230 ha         1 FFK       0.127000
     57 H17         -4.3830     2.4430     2.5990 hc         1 FFK       0.033200
     58 H18         -3.8400     0.4810     0.3270 hc         1 FFK       0.053700
     59 H19         -6.3570     2.2070     0.8180 ha         1 FFK       0.087000
     60 H20         -4.5090     2.0000    -2.9310 hc         1 FFK       0.081700
     61 H21         -3.6040     1.2900    -1.6170 hc         1 FFK       0.081700
     62 H22         -6.3580     3.5570    -2.3070 hc         1 FFK       0.025033
     63 H23         -7.2710     2.0730    -2.4740 hc         1 FFK       0.025033
     64 H24         -7.4620     3.0550    -1.0210 hc         1 FFK       0.025033
     65 H25         -5.1550    -0.6900    -1.6490 hc         1 FFK       0.015700
     66 H26         -5.9780    -0.0110    -3.0310 hc         1 FFK       0.015700
     67 H27         -4.0740    -0.4090    -4.5040 ha         1 FFK       0.102000
     68 H28         -0.9470    -1.5330    -3.7440 hc         1 FFK       0.046033
     69 H29         -1.8500    -3.0190    -3.9720 hc         1 FFK       0.046033
     70 H30         -2.1440    -1.6470    -5.0470 hc         1 FFK       0.046033
     71 H31         -1.7040    -2.0240    -1.4330 hc         1 FFK       0.077200
     72 H32         -2.9950    -0.9740    -0.9600 hc         1 FFK       0.077200
     73 H33         -4.6440    -2.8390    -1.5090 hc         1 FFK       0.032200
     74 H34         -3.2900    -3.9050    -1.7990 hc         1 FFK       0.032200
     75 H35         -3.8380    -2.4340     0.8610 ha         1 FFK       0.113000
     76 H36         -1.7400    -5.9270     0.5270 hc         1 FFK       0.030533
     77 H37         -3.3900    -6.5140     0.5530 hc         1 FFK       0.030533
     78 H38         -2.7960    -5.6340    -0.8530 hc         1 FFK       0.030533
     79 H39         -3.5140    -3.5110     2.8390 hc         1 FFK       0.030533
     80 H40         -3.8780    -5.2390     2.7620 hc         1 FFK       0.030533
     81 H41         -2.2120    -4.7010     2.7830 hc         1 FFK       0.030533
     82 H42          0.9230    -0.7130     1.0200 hn         1 FFK       0.363500
     83 H43          8.2290     1.2330    -0.1760 ho         1 FFK       0.371000
     84 H44          5.0050     2.8000     2.8480 ho         1 FFK       0.378000
     85 H45          2.1550     1.7320     3.2720 ho         1 FFK       0.396000
     86 H48         -3.2590     2.7210     1.2920 hc         1 FFK       0.033200
     87 H49         -5.0150     0.2440     1.5980 hc         1 FFK       0.053700
     88 O08          7.3080     0.9860    -0.2990 oh         1 FFK      -0.558800
     89 O15          3.2160    -0.3700    -0.8410 os         1 FFK      -0.601200
     90 P16          2.2760    -1.0680    -2.0000 p5         1 FFK       1.486800
@<TRIPOS>BOND
     1     1    11 1   
     2     1    41 1   
     3     1    42 1   
     4     1    43 1   
     5     2    12 1   
     6     2    39 1   
     7     2    44 1   
     8     2    45 1   
     9     3     4 1   
    10     3    12 2   
    11     3    13 1   
    12     4    46 1   
    13     4    47 1   
    14     4    48 1   
    15     5     6 1   
    16     5     9 1   
    17     5    31 1   
    18     5    49 1   
    19     6     7 1   
    20     6    32 1   
    21     6    50 1   
    22     7     8 1   
    23     7    29 1   
    24     7    51 1   
    25     8    30 1   
    26     8    52 1   
    27     8    89 1   
    28     9    10 1   
    29     9    30 1   
    30     9    53 1   
    31    10    54 1   
    32    10    55 1   
    33    10    88 1   
    34    11    29 1   
    35    11    33 2   
    36    12    56 1   
    37    13    14 1   
    38    13    57 1   
    39    13    86 1   
    40    14    15 1   
    41    14    58 1   
    42    14    87 1   
    43    15    16 2   
    44    15    59 1   
    45    16    17 1   
    46    16    18 1   
    47    17    19 1   
    48    17    60 1   
    49    17    61 1   
    50    18    62 1   
    51    18    63 1   
    52    18    64 1   
    53    19    20 1   
    54    19    65 1   
    55    19    66 1   
    56    20    21 2   
    57    20    67 1   
    58    21    22 1   
    59    21    23 1   
    60    22    68 1   
    61    22    69 1   
    62    22    70 1   
    63    23    24 1   
    64    23    71 1   
    65    23    72 1   
    66    24    25 1   
    67    24    73 1   
    68    24    74 1   
    69    25    26 2   
    70    25    75 1   
    71    26    27 1   
    72    26    28 1   
    73    27    76 1   
    74    27    77 1   
    75    27    78 1   
    76    28    79 1   
    77    28    80 1   
    78    28    81 1   
    79    29    82 1   
    80    31    84 1   
    81    32    85 1   
    82    34    90 1   
    83    35    90 1   
    84    36    40 1   
    85    36    90 1   
    86    37    40 1   
    87    38    40 1   
    88    39    40 1   
    89    83    88 1   
    90    89    90 1   
@<TRIPOS>SUBSTRUCTURE
     1 FFK         1 TEMP              0 ****  ****    0 ROOT
