@<TRIPOS>MOLECULE
FFK
   90    90     1     0     0
SMALL
No Charge or Current Charge


@<TRIPOS>ATOM
      1 C13          0.3170    -3.4550    -0.4280 c3         1 FFK      -0.177100
      2 C24         -1.1080     1.2310     0.0870 c3         1 FFK       0.247800
      3 C26         -2.7420     0.9950     2.0470 c2         1 FFK      -0.169400
      4 C28         -3.0890     0.4260     3.4130 c3         1 FFK      -0.039900
      5 C01          4.1650     0.6250     2.4430 c6         1 FFK       0.109300
      6 C02          2.8370     0.1010     1.8210 c6         1 FFK       0.150300
      7 C03          3.0970    -1.2180     1.0340 c6         1 FFK       0.070700
      8 C04          4.1940    -0.9420    -0.0620 c6         1 FFK       0.441300
      9 C06          5.2380     0.7860     1.3200 c6         1 FFK       0.154300
     10 C07          6.6390     1.1970     1.8850 c3         1 FFK       0.167600
     11 C12          1.6570    -3.1310     0.2140 c          1 FFK       0.624100
     12 C25         -1.5870     0.6960     1.4210 c2         1 FFK      -0.172200
     13 C27         -3.8060     1.9430     1.4950 c3         1 FFK      -0.022200
     14 C29         -5.1230     1.2250     1.1250 c3         1 FFK      -0.040200
     15 C30         -6.0450     2.0660     0.2590 c2         1 FFK      -0.235200
     16 C31         -6.0550     2.1300    -1.0860 c2         1 FFK      -0.103400
     17 C32         -5.0660     1.4060    -1.9940 c3         1 FFK      -0.056200
     18 C33         -7.0790     2.9460    -1.8550 c3         1 FFK      -0.049900
     19 C34         -5.5070    -0.0280    -2.3590 c3         1 FFK      -0.013200
     20 C35         -4.4720    -0.7600    -3.1950 c2         1 FFK      -0.270200
     21 C36         -3.4070    -1.4530    -2.7470 c2         1 FFK      -0.027400
     22 C37         -2.4530    -2.1770    -3.6810 c3         1 FFK      -0.058900
     23 C38         -3.0150    -1.5830    -1.2820 c3         1 FFK      -0.051200
     24 C39         -3.5620    -2.8590    -0.6090 c3         1 FFK      -0.040200
     25 C40         -3.2690    -2.8860     0.8840 c2         1 FFK      -0.188200
     26 C41         -2.8090    -3.9080     1.6330 c2         1 FFK      -0.144400
     27 C42         -2.4990    -5.3150     1.1410 c3         1 FFK      -0.046400
     28 C43         -2.5330    -3.7540     3.1170 c3         1 FFK      -0.046400
     29 N14          1.8500    -1.8090     0.5100 ns         1 FFK      -0.489900
     30 O05          5.3910    -0.4670     0.5940 os         1 FFK      -0.464000
     31 O09          3.9200     1.8590     3.1520 oh         1 FFK      -0.718000
     32 O10          1.8700    -0.0930     2.8710 oh         1 FFK      -0.670000
     33 O11          2.5000    -3.9850     0.4530 o          1 FFK      -0.670100
     34 O17          3.2170     0.5820    -3.4840 o          1 FFK      -0.844000
     35 O18          3.4400    -1.7520    -2.8020 o          1 FFK      -0.844000
     36 O19          1.5530    -0.4220    -1.8230 os         1 FFK      -0.717800
     37 O21         -0.0600     1.2920    -2.7370 o          1 FFK      -0.843000
     38 O22          1.7240     2.1000    -1.1970 o          1 FFK      -0.843000
     39 O23          0.0140     0.4550    -0.3220 os         1 FFK      -0.609400
     40 P20          0.8470     0.9640    -1.6000 p5         1 FFK       1.455800
     41 H1           0.2220    -2.8860    -1.3590 hc         1 FFK       0.060367
     42 H2           0.1760    -4.5280    -0.5990 hc         1 FFK       0.060367
     43 H3          -0.4800    -3.0290     0.1890 hc         1 FFK       0.060367
     44 H4          -1.9120     1.1590    -0.6560 h1         1 FFK       0.024700
     45 H5          -0.8330     2.2890     0.1950 h1         1 FFK       0.024700
     46 H6          -3.9780    -0.2130     3.3690 hc         1 FFK       0.022033
     47 H7          -2.2710    -0.1850     3.8150 hc         1 FFK       0.022033
     48 H8          -3.2840     1.2270     4.1370 hc         1 FFK       0.022033
     49 H9           4.5300    -0.1330     3.1520 h1         1 FFK       0.018700
     50 H10          2.4740     0.8600     1.1110 h1         1 FFK       0.117700
     51 H11          3.5230    -1.9430     1.7420 h1         1 FFK       0.056700
     52 H12          4.4350    -1.8960    -0.5580 h2         1 FFK       0.101700
     53 H13          4.9160     1.5740     0.6220 h1         1 FFK       0.114700
     54 H14          6.5400     2.1630     2.3970 h1         1 FFK      -0.001300
     55 H15          6.9370     0.4580     2.6400 h1         1 FFK      -0.001300
     56 H16         -0.8740     0.0190     1.8910 ha         1 FFK       0.177000
     57 H17         -4.0230     2.7360     2.2210 hc         1 FFK       0.033200
     58 H18         -4.8830     0.2870     0.6160 hc         1 FFK       0.053700
     59 H19         -6.7880     2.6230     0.8320 ha         1 FFK       0.137000
     60 H20         -4.8920     1.9770    -2.9140 hc         1 FFK       0.081700
     61 H21         -4.0880     1.3530    -1.5050 hc         1 FFK       0.081700
     62 H22         -6.5930     3.7260    -2.4540 hc         1 FFK       0.025033
     63 H23         -7.6590     2.3120    -2.5360 hc         1 FFK       0.025033
     64 H24         -7.7890     3.4430    -1.1830 hc         1 FFK       0.025033
     65 H25         -5.7120    -0.5870    -1.4390 hc         1 FFK       0.015700
     66 H26         -6.4590     0.0140    -2.9020 hc         1 FFK       0.015700
     67 H27         -4.6710    -0.7120    -4.2660 ha         1 FFK       0.152000
     68 H28         -1.4340    -1.7830    -3.5860 hc         1 FFK       0.046033
     69 H29         -2.4190    -3.2510    -3.4600 hc         1 FFK       0.046033
     70 H30         -2.7510    -2.0680    -4.7300 hc         1 FFK       0.046033
     71 H31         -1.9250    -1.5460    -1.1720 hc         1 FFK       0.077200
     72 H32         -3.3830    -0.7210    -0.7210 hc         1 FFK       0.077200
     73 H33         -4.6470    -2.8980    -0.7630 hc         1 FFK       0.032200
     74 H34         -3.1430    -3.7280    -1.1260 hc         1 FFK       0.032200
     75 H35         -3.4570    -1.9260     1.3670 ha         1 FFK       0.163000
     76 H36         -1.4370    -5.5510     1.2770 hc         1 FFK       0.030533
     77 H37         -3.0770    -6.0590     1.7020 hc         1 FFK       0.030533
     78 H38         -2.7330    -5.4670     0.0830 hc         1 FFK       0.030533
     79 H39         -2.7580    -2.7410     3.4720 hc         1 FFK       0.030533
     80 H40         -3.1410    -4.4500     3.7070 hc         1 FFK       0.030533
     81 H41         -1.4790    -3.9540     3.3450 hc         1 FFK       0.030533
     82 H42          1.1180    -1.1710     0.2040 hn         1 FFK       0.363500
     83 H43          8.5050     1.4800     1.3440 ho         1 FFK       0.470000
     84 H44          4.6570     1.9830     3.7930 ho         1 FFK       0.477000
     85 H45          2.0120     0.6690     3.4760 ho         1 FFK       0.435000
     86 H48         -3.4340     2.4590     0.6030 hc         1 FFK       0.033200
     87 H49         -5.6470     0.9320     2.0430 hc         1 FFK       0.053700
     88 O08          7.6590     1.2960     0.8770 oh         1 FFK      -0.681000
     89 O15          3.8380     0.0410    -1.0460 os         1 FFK      -0.624400
     90 P16          3.0250    -0.3870    -2.3660 p5         1 FFK       1.486800
@<TRIPOS>BOND
     1     1    11 1   
     2     1    41 1   
     3     1    42 1   
     4     1    43 1   
     5     2    12 1   
     6     2    39 1   
     7     2    44 1   
     8     2    45 1   
     9     3     4 1   
    10     3    12 2   
    11     3    13 1   
    12     4    46 1   
    13     4    47 1   
    14     4    48 1   
    15     5     6 1   
    16     5     9 1   
    17     5    31 1   
    18     5    49 1   
    19     6     7 1   
    20     6    32 1   
    21     6    50 1   
    22     7     8 1   
    23     7    29 1   
    24     7    51 1   
    25     8    30 1   
    26     8    52 1   
    27     8    89 1   
    28     9    10 1   
    29     9    30 1   
    30     9    53 1   
    31    10    54 1   
    32    10    55 1   
    33    10    88 1   
    34    11    29 1   
    35    11    33 2   
    36    12    56 1   
    37    13    14 1   
    38    13    57 1   
    39    13    86 1   
    40    14    15 1   
    41    14    58 1   
    42    14    87 1   
    43    15    16 2   
    44    15    59 1   
    45    16    17 1   
    46    16    18 1   
    47    17    19 1   
    48    17    60 1   
    49    17    61 1   
    50    18    62 1   
    51    18    63 1   
    52    18    64 1   
    53    19    20 1   
    54    19    65 1   
    55    19    66 1   
    56    20    21 2   
    57    20    67 1   
    58    21    22 1   
    59    21    23 1   
    60    22    68 1   
    61    22    69 1   
    62    22    70 1   
    63    23    24 1   
    64    23    71 1   
    65    23    72 1   
    66    24    25 1   
    67    24    73 1   
    68    24    74 1   
    69    25    26 2   
    70    25    75 1   
    71    26    27 1   
    72    26    28 1   
    73    27    76 1   
    74    27    77 1   
    75    27    78 1   
    76    28    79 1   
    77    28    80 1   
    78    28    81 1   
    79    29    82 1   
    80    31    84 1   
    81    32    85 1   
    82    34    90 1   
    83    35    90 1   
    84    36    40 1   
    85    36    90 1   
    86    37    40 1   
    87    38    40 1   
    88    39    40 1   
    89    83    88 1   
    90    89    90 1   
@<TRIPOS>SUBSTRUCTURE
     1 FFK         1 TEMP              0 ****  ****    0 ROOT
