@<TRIPOS>MOLECULE
FFL
   21    20     1     0     0
SMALL
No Charge or Current Charge


@<TRIPOS>ATOM
      1 N           30.6680     9.3490    22.9160 n8         1 FFL      -1.011200
      2 CA          30.0940     9.8410    21.6110 c3         1 FFL       0.022500
      3 C           31.1180    10.5660    20.6280 c          1 FFL       0.719000
      4 O           31.1560    11.7910    20.5900 o          1 FFL      -0.731500
      5 CB          28.8160    10.7000    21.8610 c3         1 FFL      -0.041400
      6 CG          27.6460    10.0330    22.6540 c3         1 FFL      -0.130700
      7 CD1         26.5310    11.0750    22.9150 c3         1 FFL       0.185100
      8 CD2         27.0610     8.7710    21.9640 c3         1 FFL       0.185100
      9 F1          25.5940    10.5710    23.7560 f          1 FFL      -0.285500
     10 F2          27.8900     7.7080    22.1100 f          1 FFL      -0.285500
     11 OXT         31.8390     9.8600    19.9330 o          1 FFL      -0.731500
     12 H           29.9700     8.7500    23.3710 hn         1 FFL       0.388000
     13 H2          31.4440     8.7050    22.7140 hn         1 FFL       0.388000
     14 HA          29.7760     8.9420    21.0680 h1         1 FFL       0.006700
     15 HB2         29.1170    11.6140    22.3880 hc         1 FFL       0.046700
     16 HB3         28.4280    11.0250    20.8870 hc         1 FFL       0.046700
     17 HG          28.0230     9.7320    23.6390 hc         1 FFL       0.079700
     18 HD11        26.9550    11.9760    23.3770 h1         1 FFL       0.037200
     19 HD12        26.0440    11.3590    21.9730 h1         1 FFL       0.037200
     20 HD21        26.9020     8.9560    20.8930 h1         1 FFL       0.037200
     21 HD22        26.0980     8.4990    22.4140 h1         1 FFL       0.037200
@<TRIPOS>BOND
     1     1     2 1   
     2     1    12 1   
     3     1    13 1   
     4     2     3 1   
     5     2     5 1   
     6     2    14 1   
     7     3     4 1   
     8     3    11 1   
     9     5     6 1   
    10     5    15 1   
    11     5    16 1   
    12     6     7 1   
    13     6     8 1   
    14     6    17 1   
    15     7     9 1   
    16     7    18 1   
    17     7    19 1   
    18     8    10 1   
    19     8    20 1   
    20     8    21 1   
@<TRIPOS>SUBSTRUCTURE
     1 FFL         1 TEMP              0 ****  ****    0 ROOT
