@<TRIPOS>MOLECULE
FFL
   21    20     1     0     0
SMALL
abcg2


@<TRIPOS>ATOM
      1 N           30.5490     9.2310    22.7890 n8         1 FFL      -1.011200
      2 CA          30.0050     9.7680    21.5500 c3         1 FFL       0.022500
      3 C           31.0970    10.5420    20.7620 c          1 FFL       0.719000
      4 O           30.6960    11.3330    19.8870 o          1 FFL      -0.731500
      5 CB          28.7970    10.6600    21.8380 c3         1 FFL      -0.041400
      6 CG          27.6740    10.0260    22.6660 c3         1 FFL      -0.130700
      7 CD1         26.6480    11.1040    22.9650 c3         1 FFL       0.185100
      8 CD2         26.9880     8.8560    21.9840 c3         1 FFL       0.185100
      9 F1          25.6890    10.6440    23.8700 f          1 FFL      -0.285500
     10 F2          27.7930     7.7150    21.9950 f          1 FFL      -0.285500
     11 OXT         32.2850    10.2780    21.0390 o          1 FFL      -0.731500
     12 H           30.0660     8.3800    23.0410 hn         1 FFL       0.388000
     13 H2          31.5150     8.9840    22.6180 hn         1 FFL       0.388000
     14 HA          29.6810     8.9680    20.8650 h1         1 FFL       0.006700
     15 HB2         29.1480    11.5480    22.3750 hc         1 FFL       0.046700
     16 HB3         28.3830    11.0140    20.8910 hc         1 FFL       0.046700
     17 HG          28.0790     9.6870    23.6260 hc         1 FFL       0.079700
     18 HD11        27.1330    11.9750    23.4080 h1         1 FFL       0.037200
     19 HD12        26.1270    11.4220    22.0580 h1         1 FFL       0.037200
     20 HD21        26.7580     9.0970    20.9420 h1         1 FFL       0.037200
     21 HD22        26.0600     8.5910    22.4940 h1         1 FFL       0.037200
@<TRIPOS>BOND
     1     1     2 1   
     2     1    12 1   
     3     1    13 1   
     4     2     3 1   
     5     2     5 1   
     6     2    14 1   
     7     3     4 1   
     8     3    11 1   
     9     5     6 1   
    10     5    15 1   
    11     5    16 1   
    12     6     7 1   
    13     6     8 1   
    14     6    17 1   
    15     7     9 1   
    16     7    18 1   
    17     7    19 1   
    18     8    10 1   
    19     8    20 1   
    20     8    21 1   
@<TRIPOS>SUBSTRUCTURE
     1 FFL         1 TEMP              0 ****  ****    0 ROOT
