@<TRIPOS>MOLECULE
FFM
   26    25     1     0     0
SMALL
No Charge or Current Charge


@<TRIPOS>ATOM
      1 C           55.4460    38.6760   154.2500 c          1 FFM       0.919600
      2 N           57.4600    39.9470   155.4140 n8         1 FFM      -0.886800
      3 O           55.2770    38.7700   153.0360 o          1 FFM      -0.869800
      4 C1          55.2600    44.1060   154.4640 c3         1 FFM       0.157400
      5 P1          55.9870    46.5110   156.0470 p5         1 FFM       1.125700
      6 C2          54.7050    45.2860   155.3250 c3         1 FFM      -0.009100
      7 O2          55.4290    47.1100   157.2950 o          1 FFM      -0.915833
      8 C3          56.2630    44.5080   153.3590 c3         1 FFM      -0.081100
      9 O3          56.1880    47.6020   155.0470 o          1 FFM      -0.915833
     10 O4          57.2950    45.8670   156.3600 o          1 FFM      -0.915833
     11 CA          55.9850    39.9280   155.0780 c3         1 FFM       0.054500
     12 CB          55.5590    41.2670   154.4190 c3         1 FFM       0.085700
     13 SG          55.9410    42.7290   155.5100 ss         1 FFM      -0.518200
     14 OXT         55.2050    37.6340   154.8550 o          1 FFM      -0.869800
     15 H           57.6520    40.8170   155.9230 hn         1 FFM       0.356800
     16 H2          57.6600    39.2020   156.0890 hn         1 FFM       0.356800
     17 H1          54.3930    43.6660   153.9530 h1         1 FFM      -0.007300
     18 H20         54.2320    44.8370   156.2080 h1         1 FFM       0.003700
     19 H3          55.8500    45.3080   152.7350 hc         1 FFM       0.036033
     20 H3A         57.2110    44.8530   153.7850 hc         1 FFM       0.036033
     21 H3B         56.4780    43.6530   152.7080 hc         1 FFM       0.036033
     22 HA          55.4710    39.8900   156.0480 h1         1 FFM      -0.006300
     23 HB2         56.0770    41.3890   153.4590 h1         1 FFM       0.042700
     24 HB3         54.4790    41.2480   154.2270 h1         1 FFM       0.042700
     25 O1          53.6660    45.9760   154.5660 oh         1 FFM      -0.695800
     26 HO1         54.0580    46.8480   154.3220 ho         1 FFM       0.436000
@<TRIPOS>BOND
     1     1     3 1   
     2     1    11 1   
     3     1    14 1   
     4     2    11 1   
     5     2    15 1   
     6     2    16 1   
     7     4     6 1   
     8     4     8 1   
     9     4    13 1   
    10     4    17 1   
    11     5     6 1   
    12     5     7 1   
    13     5     9 1   
    14     5    10 1   
    15     6    18 1   
    16     6    25 1   
    17     8    19 1   
    18     8    20 1   
    19     8    21 1   
    20    11    12 1   
    21    11    22 1   
    22    12    13 1   
    23    12    23 1   
    24    12    24 1   
    25    25    26 1   
@<TRIPOS>SUBSTRUCTURE
     1 FFM         1 TEMP              0 ****  ****    0 ROOT
