@<TRIPOS>MOLECULE
FFM
   26    25     1     0     0
SMALL
bcc


@<TRIPOS>ATOM
      1 C           56.6250    39.2820   154.5750 c          1 FFM       0.919600
      2 N           57.2140    41.5770   155.3180 n8         1 FFM      -0.886800
      3 O           57.2130    39.3980   153.4820 o          1 FFM      -0.869800
      4 C1          54.4400    44.0910   154.3150 c3         1 FFM       0.157400
      5 P1          56.6770    45.3030   155.9230 p5         1 FFM       1.125700
      6 C2          54.8890    45.1540   155.3230 c3         1 FFM      -0.009100
      7 O2          56.5730    46.7490   156.4700 o          1 FFM      -0.915833
      8 C3          55.2940    43.9260   153.0750 c3         1 FFM      -0.081100
      9 O3          57.6210    45.1880   154.7250 o          1 FFM      -0.915833
     10 O4          56.8920    44.2400   157.0090 o          1 FFM      -0.915833
     11 CA          56.1470    40.5950   155.2540 c3         1 FFM       0.054500
     12 CB          54.9820    41.1440   154.4350 c3         1 FFM       0.085700
     13 SG          54.1060    42.5250   155.2400 ss         1 FFM      -0.518200
     14 OXT         56.3500    38.2200   155.1680 o          1 FFM      -0.869800
     15 H           56.9210    42.3900   155.8590 hn         1 FFM       0.356800
     16 H2          58.0020    41.1860   155.8190 hn         1 FFM       0.356800
     17 H1          53.4440    44.3960   153.9750 h1         1 FFM      -0.007300
     18 H20         54.2770    44.9880   156.2290 h1         1 FFM       0.003700
     19 H3          55.4370    44.9040   152.6130 hc         1 FFM       0.036033
     20 H3A         56.2760    43.5200   153.2980 hc         1 FFM       0.036033
     21 H3B         54.8010    43.2860   152.3430 hc         1 FFM       0.036033
     22 HA          55.7530    40.3250   156.2460 h1         1 FFM      -0.006300
     23 HB2         55.3270    41.4440   153.4470 h1         1 FFM       0.042700
     24 HB3         54.2330    40.3620   154.2930 h1         1 FFM       0.042700
     25 O1          54.5620    46.4280   154.7720 oh         1 FFM      -0.695800
     26 HO1         55.1690    47.0090   155.2760 ho         1 FFM       0.436000
@<TRIPOS>BOND
     1     1     3 1   
     2     1    11 1   
     3     1    14 1   
     4     2    11 1   
     5     2    15 1   
     6     2    16 1   
     7     4     6 1   
     8     4     8 1   
     9     4    13 1   
    10     4    17 1   
    11     5     6 1   
    12     5     7 1   
    13     5     9 1   
    14     5    10 1   
    15     6    18 1   
    16     6    25 1   
    17     8    19 1   
    18     8    20 1   
    19     8    21 1   
    20    11    12 1   
    21    11    22 1   
    22    12    13 1   
    23    12    23 1   
    24    12    24 1   
    25    25    26 1   
@<TRIPOS>SUBSTRUCTURE
     1 FFM         1 TEMP              0 ****  ****    0 ROOT
