@<TRIPOS>MOLECULE
FFN
   27    29     1     0     0
SMALL
No Charge or Current Charge


@<TRIPOS>ATOM
      1 C01          4.8570     1.8310     0.0590 c3         1 FFN      -0.143400
      2 C02          3.5570     1.0900    -0.0240 cc         1 FFN       0.506900
      3 N03          3.5130    -0.2400     0.0030 nd         1 FFN      -0.607100
      4 N18          2.4660     1.8990    -0.1570 ns         1 FFN      -0.422400
      5 C16          1.1920     1.4610    -0.2580 c          1 FFN       0.596600
      6 O17          0.2740     2.2400    -0.4490 o          1 FFN      -0.528000
      7 C15          1.1000    -0.0070    -0.1590 cc         1 FFN      -0.234600
      8 C04          2.2290    -0.7890    -0.0730 cd         1 FFN       0.070400
      9 S05          1.8780    -2.5250    -0.0830 ss         1 FFN       0.276000
     10 C06          0.1490    -2.1540    -0.1680 cd         1 FFN      -0.261000
     11 C07         -0.0980    -0.7980    -0.2180 cc         1 FFN       0.018000
     12 C08         -1.5120    -0.3990    -0.0980 ca         1 FFN      -0.039000
     13 C09         -2.5180    -1.1420    -0.7600 ca         1 FFN      -0.056500
     14 C10         -3.8740    -0.7860    -0.6380 ca         1 FFN      -0.155500
     15 C11         -4.2400     0.3050     0.1600 ca         1 FFN       0.176000
     16 F12         -5.5420     0.6440     0.2810 f          1 FFN      -0.181000
     17 C13         -3.2610     1.0360     0.8450 ca         1 FFN      -0.155500
     18 C14         -1.9050     0.6830     0.7210 ca         1 FFN      -0.056500
     19 H1           4.8600     2.5190     0.9120 hc         1 FFN       0.068700
     20 H2           5.6990     1.1400     0.1850 hc         1 FFN       0.068700
     21 H3           5.0340     2.4110    -0.8540 hc         1 FFN       0.068700
     22 H4           2.5970     2.8980    -0.2070 hn         1 FFN       0.328500
     23 H5          -0.5630    -2.9670    -0.1220 h4         1 FFN       0.157000
     24 H6          -2.2510    -1.9840    -1.3940 ha         1 FFN       0.120500
     25 H7          -4.6370    -1.3550    -1.1620 ha         1 FFN       0.131500
     26 H8          -3.5520     1.8690     1.4800 ha         1 FFN       0.131500
     27 H9          -1.1670     1.2300     1.3000 ha         1 FFN       0.120500
@<TRIPOS>BOND
     1     1     2 1   
     2     1    19 1   
     3     1    20 1   
     4     1    21 1   
     5     2     3 2   
     6     2     4 1   
     7     3     8 1   
     8     4     5 1   
     9     4    22 1   
    10     5     6 2   
    11     5     7 1   
    12     7     8 2   
    13     7    11 1   
    14     8     9 1   
    15     9    10 1   
    16    10    11 2   
    17    10    23 1   
    18    11    12 1   
    19    12    13 ar  
    20    12    18 ar  
    21    13    14 ar  
    22    13    24 1   
    23    14    15 ar  
    24    14    25 1   
    25    15    16 1   
    26    15    17 ar  
    27    17    18 ar  
    28    17    26 1   
    29    18    27 1   
@<TRIPOS>SUBSTRUCTURE
     1 FFN         1 TEMP              0 ****  ****    0 ROOT
