@<TRIPOS>MOLECULE
FFN
   27    29     1     0     0
SMALL
bcc


@<TRIPOS>ATOM
      1 C01          4.8660     1.7730    -0.1510 c3         1 FFN      -0.143400
      2 C02          3.5460     1.0850    -0.1030 cc         1 FFN       0.506900
      3 N03          3.4700    -0.2030     0.0100 nd         1 FFN      -0.607100
      4 N18          2.4440     1.8710    -0.1880 ns         1 FFN      -0.489400
      5 C16          1.1230     1.4350    -0.1700 c          1 FFN       0.739100
      6 O17          0.2080     2.2280    -0.2940 o          1 FFN      -0.603500
      7 C15          1.0320     0.0050    -0.0050 cc         1 FFN      -0.234600
      8 C04          2.2170    -0.7060     0.0490 cd         1 FFN       0.215300
      9 S05          1.9310    -2.4000     0.1490 ss         1 FFN      -0.013800
     10 C06          0.2280    -2.1500     0.1200 cd         1 FFN      -0.134100
     11 C07         -0.1270    -0.8390     0.0410 cc         1 FFN       0.018000
     12 C08         -1.5350    -0.4050     0.0210 ca         1 FFN      -0.039000
     13 C09         -2.4260    -0.9740    -0.8860 ca         1 FFN      -0.074500
     14 C10         -3.7680    -0.6180    -0.8940 ca         1 FFN      -0.173500
     15 C11         -4.2050     0.3170     0.0220 ca         1 FFN       0.140900
     16 F12         -5.5000     0.6750     0.0220 f          1 FFN      -0.145900
     17 C13         -3.3520     0.8990     0.9420 ca         1 FFN      -0.173500
     18 C14         -2.0160     0.5340     0.9330 ca         1 FFN      -0.074500
     19 H1           4.9650     2.4740     0.6790 hc         1 FFN       0.068700
     20 H2           5.6690     1.0450    -0.0950 hc         1 FFN       0.068700
     21 H3           4.9680     2.3430    -1.0760 hc         1 FFN       0.068700
     22 H4           2.5780     2.8690    -0.2930 hn         1 FFN       0.328500
     23 H5          -0.4380    -2.9970     0.1890 h4         1 FFN       0.175000
     24 H6          -2.0690    -1.6950    -1.6090 ha         1 FFN       0.138500
     25 H7          -4.4530    -1.0570    -1.6060 ha         1 FFN       0.149500
     26 H8          -3.7250     1.6230     1.6550 ha         1 FFN       0.149500
     27 H9          -1.3490     0.9780     1.6590 ha         1 FFN       0.138500
@<TRIPOS>BOND
     1     1     2 1   
     2     1    19 1   
     3     1    20 1   
     4     1    21 1   
     5     2     3 2   
     6     2     4 1   
     7     3     8 1   
     8     4     5 1   
     9     4    22 1   
    10     5     6 2   
    11     5     7 1   
    12     7     8 2   
    13     7    11 1   
    14     8     9 1   
    15     9    10 1   
    16    10    11 2   
    17    10    23 1   
    18    11    12 1   
    19    12    13 ar  
    20    12    18 ar  
    21    13    14 ar  
    22    13    24 1   
    23    14    15 ar  
    24    14    25 1   
    25    15    16 1   
    26    15    17 ar  
    27    17    18 ar  
    28    17    26 1   
    29    18    27 1   
@<TRIPOS>SUBSTRUCTURE
     1 FFN         1 TEMP              0 ****  ****    0 ROOT
