@<TRIPOS>MOLECULE
FFO
   55    57     1     0     0
SMALL
No Charge or Current Charge


@<TRIPOS>ATOM
      1 N1          22.8900    57.5980    22.6010 nc         1 FFO      -0.798300
      2 C2          23.5160    58.6890    22.8990 cd         1 FFO       0.770800
      3 NA2         24.6880    58.8220    22.3160 nv         1 FFO      -1.042200
      4 N3          23.0970    59.6720    23.6850 ns         1 FFO      -0.438400
      5 C4          21.9110    59.6480    24.3240 c          1 FFO       0.615200
      6 O4          21.5430    60.6190    24.9620 o          1 FFO      -0.514000
      7 C4A         21.1420    58.3870    24.1080 cd         1 FFO      -0.295600
      8 N5          19.8790    58.0500    24.6830 n          1 FFO      -0.277000
      9 C6          19.0220    57.0500    23.9650 c6         1 FFO       0.059700
     10 C7          19.8740    55.8440    23.4730 c6         1 FFO       0.219800
     11 N8          21.1110    56.3220    22.8410 nu         1 FFO      -0.837200
     12 C8A         21.6900    57.4770    23.2150 cc         1 FFO       0.451600
     13 C9          18.2010    57.6660    22.7860 c3         1 FFO       0.239800
     14 N10         17.1770    58.6450    23.2250 nu         1 FFO      -0.978200
     15 C11         17.8930    62.4910    24.8270 ca         1 FFO      -0.158600
     16 C12         16.8250    61.6900    25.2910 ca         1 FFO      -0.034500
     17 C13         16.5940    60.4160    24.7460 ca         1 FFO      -0.207000
     18 C14         17.4230    59.9170    23.7350 ca         1 FFO       0.337000
     19 C15         18.4800    60.7050    23.2570 ca         1 FFO      -0.207000
     20 C16         18.7200    61.9800    23.7970 ca         1 FFO      -0.034500
     21 O           17.3890    64.3010    26.3210 o          1 FFO      -0.654100
     22 N           19.1790    64.5910    24.9520 ns         1 FFO      -0.452900
     23 CA          19.5900    65.9370    25.4210 c3         1 FFO      -0.044300
     24 CB          20.4020    65.8500    26.7410 c3         1 FFO      -0.044400
     25 CG          20.7450    67.2270    27.3640 c3         1 FFO      -0.195400
     26 CD          21.4800    67.0390    28.7020 c          1 FFO       0.715000
     27 OE1         20.8140    66.9500    29.7220 o          1 FFO      -0.767500
     28 OE2         22.6980    66.9470    28.6850 o          1 FFO      -0.767500
     29 CT          20.3650    66.6820    24.2880 c          1 FFO       0.720000
     30 O1          21.2620    66.0840    23.7060 o          1 FFO      -0.746500
     31 O2          19.9540    67.7770    23.9280 o          1 FFO      -0.746500
     32 C5A         19.4080    58.5190    25.9380 c          1 FFO       0.605900
     33 O5B         20.0870    59.1140    26.7670 o          1 FFO      -0.568100
     34 HN21        24.9800    57.9650    21.8660 hn         1 FFO       0.513000
     35 HN22        25.4130    59.2820    22.8520 hn         1 FFO       0.513000
     36 H6          18.2860    56.6390    24.6720 h1         1 FFO       0.049700
     37 H7          20.1300    55.2160    24.3400 h1         1 FFO       0.037200
     38 H91         18.8920    58.1230    22.0640 h1         1 FFO       0.045200
     39 H92         17.6940    56.8420    22.2660 h1         1 FFO       0.045200
     40 HN0         16.2880    58.2440    23.5250 hn         1 FFO       0.469000
     41 H12         16.1690    62.0530    26.0800 ha         1 FFO       0.128500
     42 H13         15.7700    59.8150    25.1200 ha         1 FFO       0.094000
     43 H15         19.1270    60.3340    22.4680 ha         1 FFO       0.094000
     44 H16         19.5550    62.5540    23.4030 ha         1 FFO       0.128500
     45 HN          19.7340    64.1630    24.2220 hn         1 FFO       0.324500
     46 HA          18.6780    66.5140    25.6170 h1         1 FFO       0.053700
     47 HB1         19.8270    65.2710    27.4740 hc         1 FFO       0.029200
     48 HB2         21.3300    65.2930    26.5600 hc         1 FFO       0.029200
     49 HG1         21.3970    67.7350    26.6440 hc         1 FFO       0.030700
     50 HG2         19.7850    67.7320    27.5250 hc         1 FFO       0.030700
     51 H5A         18.3560    58.2340    26.1260 h5         1 FFO      -0.017800
     52 H22         23.6460    60.5080    23.7860 hn         1 FFO       0.347500
     53 H23         19.2910    55.2200    22.7800 h1         1 FFO       0.037200
     54 H24         21.7280    55.6920    22.3350 hn         1 FFO       0.498000
     55 C           18.1170    63.8590    25.4410 c          1 FFO       0.594700
@<TRIPOS>BOND
     1     1     2 2   
     2     1    12 1   
     3     2     3 1   
     4     2     4 1   
     5     3    34 1   
     6     3    35 1   
     7     4     5 1   
     8     4    52 1   
     9     5     6 2   
    10     5     7 1   
    11     7     8 1   
    12     7    12 2   
    13     8     9 1   
    14     8    32 1   
    15     9    10 1   
    16     9    13 1   
    17     9    36 1   
    18    10    11 1   
    19    10    37 1   
    20    10    53 1   
    21    11    12 1   
    22    11    54 1   
    23    13    14 1   
    24    13    38 1   
    25    13    39 1   
    26    14    18 1   
    27    14    40 1   
    28    15    16 ar  
    29    15    20 ar  
    30    15    55 1   
    31    16    17 ar  
    32    16    41 1   
    33    17    18 ar  
    34    17    42 1   
    35    18    19 ar  
    36    19    20 ar  
    37    19    43 1   
    38    20    44 1   
    39    21    55 2   
    40    22    23 1   
    41    22    45 1   
    42    22    55 1   
    43    23    24 1   
    44    23    29 1   
    45    23    46 1   
    46    24    25 1   
    47    24    47 1   
    48    24    48 1   
    49    25    26 1   
    50    25    49 1   
    51    25    50 1   
    52    26    27 1   
    53    26    28 1   
    54    29    30 1   
    55    29    31 1   
    56    32    33 2   
    57    32    51 1   
@<TRIPOS>SUBSTRUCTURE
     1 FFO         1 TEMP              0 ****  ****    0 ROOT
