@<TRIPOS>MOLECULE
FFO
   55    57     1     0     0
SMALL
bcc


@<TRIPOS>ATOM
      1 N1          22.2390    58.7270    22.8320 nc         1 FFO      -0.798300
      2 C2          22.5140    59.7330    23.6220 cd         1 FFO       0.770800
      3 NA2         23.4100    60.6500    23.2370 nv         1 FFO      -0.931800
      4 N3          21.9060    59.9080    24.8180 ns         1 FFO      -0.505400
      5 C4          20.8980    59.0730    25.3130 c          1 FFO       0.757700
      6 O4          20.3410    59.3640    26.3630 o          1 FFO      -0.589500
      7 C4A         20.6610    57.9470    24.4830 cd         1 FFO      -0.295600
      8 N5          19.6420    57.0190    24.7760 n          1 FFO      -0.344000
      9 C6          18.9070    56.5410    23.6190 c6         1 FFO       0.059700
     10 C7          19.9180    55.9210    22.6530 c6         1 FFO       0.219800
     11 N8          20.9900    56.8600    22.4030 nu         1 FFO      -0.782000
     12 C8A         21.3100    57.8460    23.2600 cc         1 FFO       0.451600
     13 C9          18.0900    57.6410    22.9220 c3         1 FFO       0.239800
     14 N10         17.3850    58.5120    23.8130 nu         1 FFO      -0.784600
     15 C11         18.3150    62.4860    24.8140 ca         1 FFO      -0.158600
     16 C12         17.3170    61.7670    25.4760 ca         1 FFO      -0.052500
     17 C13         17.0270    60.4610    25.1470 ca         1 FFO      -0.225000
     18 C14         17.7200    59.7970    24.1170 ca         1 FFO       0.198600
     19 C15         18.7010    60.5280    23.4280 ca         1 FFO      -0.225000
     20 C16         18.9850    61.8340    23.7790 ca         1 FFO      -0.052500
     21 O           17.7750    64.5080    25.9270 o          1 FFO      -0.654100
     22 N           19.7120    64.4450    24.7730 ns         1 FFO      -0.519900
     23 CA          20.1180    65.8170    24.9950 c3         1 FFO      -0.044300
     24 CB          20.7440    65.9810    26.3910 c3         1 FFO      -0.044400
     25 CG          21.0050    67.4190    26.8080 c3         1 FFO      -0.195400
     26 CD          21.5250    67.6160    28.2470 c          1 FFO       0.925600
     27 OE1         21.6630    68.8030    28.6120 o          1 FFO      -0.872800
     28 OE2         21.7730    66.5990    28.9260 o          1 FFO      -0.872800
     29 CT          21.1210    66.2030    23.8800 c          1 FFO       0.930600
     30 O1          21.7640    65.2590    23.3690 o          1 FFO      -0.851800
     31 O2          21.2210    67.4120    23.6090 o          1 FFO      -0.851800
     32 C5A         19.6220    56.3060    25.9260 c          1 FFO       0.672900
     33 O5B         20.4170    56.4040    26.8370 o          1 FFO      -0.568100
     34 HN21        23.9420    60.4770    22.4020 hn         1 FFO       0.457800
     35 HN22        23.7430    61.3660    23.8600 hn         1 FFO       0.457800
     36 H6          18.2280    55.7550    23.9550 h1         1 FFO       0.049700
     37 H7          20.2990    54.9890    23.0790 h1         1 FFO       0.037200
     38 H91         18.7270    58.2300    22.2670 h1         1 FFO       0.045200
     39 H92         17.3800    57.1350    22.2620 h1         1 FFO       0.045200
     40 HN0         16.6840    58.0830    24.3950 hn         1 FFO       0.413800
     41 H12         16.7590    62.2380    26.2750 ha         1 FFO       0.146500
     42 H13         16.2550    59.9310    25.6920 ha         1 FFO       0.112000
     43 H15         19.2550    60.0920    22.6080 ha         1 FFO       0.112000
     44 H16         19.7440    62.3430    23.1960 ha         1 FFO       0.146500
     45 HN          20.3780    63.9140    24.2320 hn         1 FFO       0.324500
     46 HA          19.2390    66.4640    24.9280 h1         1 FFO       0.053700
     47 HB1         20.0670    65.5200    27.1130 hc         1 FFO       0.029200
     48 HB2         21.6690    65.3980    26.4260 hc         1 FFO       0.029200
     49 HG1         21.7180    67.8900    26.1270 hc         1 FFO       0.030700
     50 HG2         20.0850    68.0050    26.6960 hc         1 FFO       0.030700
     51 H5A         18.7710    55.6070    25.9560 h5         1 FFO      -0.017800
     52 H22         22.1160    60.7280    25.3720 hn         1 FFO       0.347500
     53 H23         19.4390    55.6730    21.7040 h1         1 FFO       0.037200
     54 H24         21.4340    56.8740    21.4990 hn         1 FFO       0.442800
     55 C           18.5760    63.8960    25.2190 c          1 FFO       0.661700
@<TRIPOS>BOND
     1     1     2 2   
     2     1    12 1   
     3     2     3 1   
     4     2     4 1   
     5     3    34 1   
     6     3    35 1   
     7     4     5 1   
     8     4    52 1   
     9     5     6 2   
    10     5     7 1   
    11     7     8 1   
    12     7    12 2   
    13     8     9 1   
    14     8    32 1   
    15     9    10 1   
    16     9    13 1   
    17     9    36 1   
    18    10    11 1   
    19    10    37 1   
    20    10    53 1   
    21    11    12 1   
    22    11    54 1   
    23    13    14 1   
    24    13    38 1   
    25    13    39 1   
    26    14    18 1   
    27    14    40 1   
    28    15    16 ar  
    29    15    20 ar  
    30    15    55 1   
    31    16    17 ar  
    32    16    41 1   
    33    17    18 ar  
    34    17    42 1   
    35    18    19 ar  
    36    19    20 ar  
    37    19    43 1   
    38    20    44 1   
    39    21    55 2   
    40    22    23 1   
    41    22    45 1   
    42    22    55 1   
    43    23    24 1   
    44    23    29 1   
    45    23    46 1   
    46    24    25 1   
    47    24    47 1   
    48    24    48 1   
    49    25    26 1   
    50    25    49 1   
    51    25    50 1   
    52    26    27 1   
    53    26    28 1   
    54    29    30 1   
    55    29    31 1   
    56    32    33 2   
    57    32    51 1   
@<TRIPOS>SUBSTRUCTURE
     1 FFO         1 TEMP              0 ****  ****    0 ROOT
