@<TRIPOS>MOLECULE
FFP
   13    13     1     0     0
SMALL
No Charge or Current Charge


@<TRIPOS>ATOM
      1 F1           4.0030    -2.1490    -0.0440 f          1 FFP      -0.171500
      2 C6           2.9570    -1.6150     0.6300 ca         1 FFP       0.127000
      3 C5           1.9030    -1.0310    -0.0940 ca         1 FFP      -0.126000
      4 C4           0.8070    -0.4700     0.5860 ca         1 FFP      -0.098000
      5 C3           0.7670    -0.4960     1.9910 ca         1 FFP      -0.126000
      6 C2           1.8220    -1.0800     2.7140 ca         1 FFP       0.127000
      7 F2           1.7690    -1.0960     4.0660 f          1 FFP      -0.171500
      8 C1           2.9270    -1.6460     2.0420 ca         1 FFP       0.067100
      9 O            3.9570    -2.2170     2.7530 oh         1 FFP      -0.507100
     10 H5           1.9380    -1.0140    -1.1810 ha         1 FFP       0.138000
     11 H4          -0.0090    -0.0180     0.0250 ha         1 FFP       0.126000
     12 H3          -0.0780    -0.0640     2.5220 ha         1 FFP       0.138000
     13 HO           3.7550    -2.1410     3.7120 ho         1 FFP       0.480000
@<TRIPOS>BOND
     1     1     2 1   
     2     2     3 ar  
     3     2     8 ar  
     4     3     4 ar  
     5     3    10 1   
     6     4     5 ar  
     7     4    11 1   
     8     5     6 ar  
     9     5    12 1   
    10     6     7 1   
    11     6     8 ar  
    12     8     9 1   
    13     9    13 1   
@<TRIPOS>SUBSTRUCTURE
     1 FFP         1 TEMP              0 ****  ****    0 ROOT
