@<TRIPOS>MOLECULE
FFP
   13    13     1     0     0
SMALL
abcg2


@<TRIPOS>ATOM
      1 F1           3.9770    -2.1410     0.0420 f          1 FFP      -0.171500
      2 C6           2.9220    -1.5970     0.6650 ca         1 FFP       0.127000
      3 C5           1.9030    -1.0310    -0.0710 ca         1 FFP      -0.126000
      4 C4           0.8180    -0.4760     0.5940 ca         1 FFP      -0.098000
      5 C3           0.7640    -0.4940     1.9800 ca         1 FFP      -0.126000
      6 C2           1.8040    -1.0700     2.6790 ca         1 FFP       0.127000
      7 F2           1.7740    -1.1020     4.0230 f          1 FFP      -0.171500
      8 C1           2.9090    -1.6370     2.0560 ca         1 FFP       0.067100
      9 O            3.9370    -2.2070     2.7020 oh         1 FFP      -0.507100
     10 H5           1.9620    -1.0260    -1.1510 ha         1 FFP       0.138000
     11 H4           0.0120    -0.0290     0.0290 ha         1 FFP       0.126000
     12 H3          -0.0730    -0.0660     2.5160 ha         1 FFP       0.138000
     13 HO           3.8100    -2.1610     3.6570 ho         1 FFP       0.480000
@<TRIPOS>BOND
     1     1     2 1   
     2     2     3 ar  
     3     2     8 ar  
     4     3     4 ar  
     5     3    10 1   
     6     4     5 ar  
     7     4    11 1   
     8     5     6 ar  
     9     5    12 1   
    10     6     7 1   
    11     6     8 ar  
    12     8     9 1   
    13     9    13 1   
@<TRIPOS>SUBSTRUCTURE
     1 FFP         1 TEMP              0 ****  ****    0 ROOT
