@<TRIPOS>MOLECULE
FFQ
   15    14     1     0     0
SMALL
No Charge or Current Charge


@<TRIPOS>ATOM
      1 C1           1.7730     0.6890    -0.2490 c3         1 FFQ      -0.057400
      2 O1           1.2410    -1.7060    -0.0870 oh         1 FFQ      -0.749000
      3 P1          -1.0260     0.0470    -0.0460 p5         1 FFQ       1.279500
      4 C2           0.8030    -0.3770     0.3370 c3         1 FFQ      -0.162700
      5 O2          -1.2810     1.4990     0.1840 o          1 FFQ      -0.917500
      6 C3           3.2390     0.5570     0.2230 c3         1 FFQ      -0.073100
      7 O3          -1.2920    -0.3070    -1.4720 o          1 FFQ      -0.917500
      8 O4          -1.9060    -0.7680     0.8430 o          1 FFQ      -0.917500
      9 H            1.7430     0.6530    -1.3450 hc         1 FFQ       0.030200
     10 H2           0.7250    -1.9260    -0.9010 ho         1 FFQ       0.476000
     11 H1           0.8730    -0.3120     1.4300 h1         1 FFQ       0.006700
     12 H20          3.3000     0.5970     1.3180 hc         1 FFQ      -0.008967
     13 HO2          3.6840    -0.3870    -0.1160 hc         1 FFQ      -0.008967
     14 H3           3.8420     1.3780    -0.1810 hc         1 FFQ      -0.008967
     15 H3B          1.4230     1.6870     0.0390 hc         1 FFQ       0.030200
@<TRIPOS>BOND
     1     1     4 1   
     2     1     6 1   
     3     1     9 1   
     4     1    15 1   
     5     2     4 1   
     6     2    10 1   
     7     3     4 1   
     8     3     5 1   
     9     3     7 1   
    10     3     8 1   
    11     4    11 1   
    12     6    12 1   
    13     6    13 1   
    14     6    14 1   
@<TRIPOS>SUBSTRUCTURE
     1 FFQ         1 TEMP              0 ****  ****    0 ROOT
