@<TRIPOS>MOLECULE
FFQ
   15    14     1     0     0
SMALL
abcg2


@<TRIPOS>ATOM
      1 C1           1.7520     0.7830    -0.1250 c3         1 FFQ      -0.057400
      2 O1           1.1600    -1.5730    -0.1820 oh         1 FFQ      -0.749000
      3 P1          -0.9910    -0.0200    -0.0990 p5         1 FFQ       1.279500
      4 C2           0.8090    -0.3050     0.3700 c3         1 FFQ      -0.162700
      5 O2          -1.2010     1.4830    -0.2910 o          1 FFQ      -0.917500
      6 C3           3.2160     0.5080     0.1930 c3         1 FFQ      -0.073100
      7 O3          -1.0300    -0.8360    -1.4200 o          1 FFQ      -0.917500
      8 O4          -1.8440    -0.6370     1.0130 o          1 FFQ      -0.917500
      9 H            1.6250     0.9090    -1.2060 hc         1 FFQ       0.030200
     10 H2           0.4940    -1.6520    -0.8990 ho         1 FFQ       0.476000
     11 H1           0.9120    -0.3690     1.4630 h1         1 FFQ       0.006700
     12 H20          3.3710     0.4060     1.2700 hc         1 FFQ      -0.008967
     13 HO2          3.5560    -0.4160    -0.2770 hc         1 FFQ      -0.008967
     14 H3           3.8650     1.3130    -0.1570 hc         1 FFQ      -0.008967
     15 H3B          1.4480     1.7320     0.3230 hc         1 FFQ       0.030200
@<TRIPOS>BOND
     1     1     4 1   
     2     1     6 1   
     3     1     9 1   
     4     1    15 1   
     5     2     4 1   
     6     2    10 1   
     7     3     4 1   
     8     3     5 1   
     9     3     7 1   
    10     3     8 1   
    11     4    11 1   
    12     6    12 1   
    13     6    13 1   
    14     6    14 1   
@<TRIPOS>SUBSTRUCTURE
     1 FFQ         1 TEMP              0 ****  ****    0 ROOT
