@<TRIPOS>MOLECULE
FFR
   67    72     1     0     0
SMALL
bcc


@<TRIPOS>ATOM
      1 N1         104.2440   130.8030    82.5850 nb         1 FFR      -0.643000
      2 C15         99.1780   136.0600    83.6180 c2         1 FFR      -0.124200
      3 C17         98.6380   133.7770    82.8670 c6         1 FFR      -0.035200
      4 C21         96.8850   137.7630    80.7210 ca         1 FFR       0.650600
      5 C24         99.1480   139.5880    81.4610 ca         1 FFR      -0.125300
      6 C26        101.2690   139.3490    82.6120 ca         1 FFR      -0.113000
      7 C28        101.9120   139.1790    81.3880 ca         1 FFR       0.025000
      8 C1         103.3210   138.9520    81.3490 cg         1 FFR       0.220800
      9 C02        105.4360   128.9420    81.5150 c          1 FFR       0.822100
     10 N2         104.4580   138.7660    81.3230 n1         1 FFR      -0.334800
     11 O03        105.6550   127.7160    81.5650 o          1 FFR      -0.801800
     12 C04        104.5220   129.5000    82.6130 ca         1 FFR       0.379800
     13 C06        103.4460   131.2280    83.5410 ca         1 FFR       0.394800
     14 C07        102.8700   130.4690    84.5680 ca         1 FFR      -0.066900
     15 C08        103.1680   129.1140    84.5970 ca         1 FFR      -0.080000
     16 C09        104.0060   128.6430    83.6000 ca         1 FFR      -0.237300
     17 N10        102.0810   131.2680    85.3540 nc         1 FFR      -0.589100
     18 C11        102.1750   132.4620    84.8310 cd         1 FFR       0.382800
     19 C12        101.4370   133.6550    85.3440 c3         1 FFR       0.163500
     20 N13        100.5320   134.1800    84.3440 n3         1 FFR      -0.727600
     21 C14        100.1590   135.5500    84.6170 c6         1 FFR       0.201000
     22 C16         98.4980   135.2710    82.7820 ce         1 FFR      -0.190000
     23 C18         99.3590   133.3540    84.1360 c6         1 FFR       0.170800
     24 C19         97.6310   135.8520    81.7390 ca         1 FFR       0.526100
     25 N20         97.5910   137.1900    81.6590 nb         1 FFR      -0.769000
     26 C23         97.6660   139.8460    81.5370 c3         1 FFR       0.205700
     27 C25         99.9000   139.5470    82.6310 ca         1 FFR      -0.096000
     28 C29        101.1920   139.2260    80.1980 ca         1 FFR      -0.135000
     29 C30         99.8310   139.4400    80.2610 ca         1 FFR       0.150900
     30 C31         96.1280   137.0600    79.7760 ca         1 FFR      -0.269300
     31 C32         96.1540   135.6870    79.8630 ca         1 FFR      -0.066000
     32 C33         96.9140   135.0620    80.8510 ca         1 FFR      -0.273300
     33 N34        102.9890   132.5090    83.7330 na         1 FFR      -0.245000
     34 C35        103.3370   133.6500    82.9130 c3         1 FFR       0.047300
     35 C36        104.7670   134.1090    83.1530 cy         1 FFR       0.111100
     36 C37        105.0580   134.8310    84.4730 cy         1 FFR      -0.141400
     37 C38        105.2690   136.0580    83.5850 cy         1 FFR       0.114400
     38 O39        105.0400   135.2920    82.3920 oq         1 FFR      -0.396600
     39 F1          99.1540   139.5020    79.1090 f          1 FFR      -0.131900
     40 H1          99.0490   137.1330    83.5700 ha         1 FFR       0.139000
     41 H2          97.6550   133.2980    82.8540 hc         1 FFR       0.056700
     42 H3          99.1720   133.4010    81.9880 hc         1 FFR       0.056700
     43 H4         101.8300   139.3150    83.5360 ha         1 FFR       0.146000
     44 H6         102.7650   128.4550    85.3560 ha         1 FFR       0.124000
     45 H7         104.2730   127.5970    83.5670 ha         1 FFR       0.160000
     46 H8         102.1500   134.4420    85.6060 h1         1 FFR       0.047200
     47 H9         100.9340   133.3630    86.2760 h1         1 FFR       0.047200
     48 H11        101.0570   136.1760    84.5820 h1         1 FFR       0.036200
     49 H12         99.7430   135.6810    85.6330 h1         1 FFR       0.036200
     50 H13         98.6740   133.4140    84.9980 h1         1 FFR       0.045200
     51 H14         99.6610   132.3090    84.0490 h1         1 FFR       0.045200
     52 H15         97.4630   140.8890    81.2880 h1         1 FFR       0.062700
     53 H16         97.3340   139.6830    82.5660 h1         1 FFR       0.062700
     54 H17         99.3950   139.6600    83.5820 ha         1 FFR       0.136000
     55 H18        101.6800   139.1040    79.2400 ha         1 FFR       0.164000
     56 H19         95.5590   137.5790    79.0170 ha         1 FFR       0.152000
     57 H20         95.5890   135.0900    79.1590 ha         1 FFR       0.136000
     58 H21         96.9430   133.9840    80.9070 ha         1 FFR       0.150000
     59 H22        102.6300   134.4500    83.1240 h1         1 FFR       0.076700
     60 H23        103.2120   133.3730    81.8640 h1         1 FFR       0.076700
     61 H24        105.4660   133.3020    82.9110 h1         1 FFR       0.109700
     62 H25        104.2310   134.8940    85.1780 hc         1 FFR       0.056200
     63 H26        105.9430   134.4820    84.9990 hc         1 FFR       0.056200
     64 H27        106.2710   136.4940    83.6100 h1         1 FFR       0.039700
     65 H28        104.5360   136.8590    83.7100 h1         1 FFR       0.039700
     66 O01        105.8660   129.7570    80.6840 o          1 FFR      -0.801800
     67 O22         96.8780   139.1010    80.6300 os         1 FFR      -0.432100
@<TRIPOS>BOND
     1     1    12 ar  
     2     1    13 ar  
     3     2    21 1   
     4     2    22 2   
     5     2    40 1   
     6     3    22 1   
     7     3    23 1   
     8     3    41 1   
     9     3    42 1   
    10     4    25 ar  
    11     4    30 ar  
    12     4    67 1   
    13     5    26 1   
    14     5    27 ar  
    15     5    29 ar  
    16     6     7 ar  
    17     6    27 ar  
    18     6    43 1   
    19     7     8 1   
    20     7    28 ar  
    21     8    10 3   
    22     9    11 1   
    23     9    12 1   
    24     9    66 1   
    25    12    16 ar  
    26    13    14 ar  
    27    13    33 1   
    28    14    15 ar  
    29    14    17 1   
    30    15    16 ar  
    31    15    44 1   
    32    16    45 1   
    33    17    18 2   
    34    18    19 1   
    35    18    33 1   
    36    19    20 1   
    37    19    46 1   
    38    19    47 1   
    39    20    21 1   
    40    20    23 1   
    41    21    48 1   
    42    21    49 1   
    43    22    24 1   
    44    23    50 1   
    45    23    51 1   
    46    24    25 ar  
    47    24    32 ar  
    48    26    52 1   
    49    26    53 1   
    50    26    67 1   
    51    27    54 1   
    52    28    29 ar  
    53    28    55 1   
    54    29    39 1   
    55    30    31 ar  
    56    30    56 1   
    57    31    32 ar  
    58    31    57 1   
    59    32    58 1   
    60    33    34 1   
    61    34    35 1   
    62    34    59 1   
    63    34    60 1   
    64    35    36 1   
    65    35    38 1   
    66    35    61 1   
    67    36    37 1   
    68    36    62 1   
    69    36    63 1   
    70    37    38 1   
    71    37    64 1   
    72    37    65 1   
@<TRIPOS>SUBSTRUCTURE
     1 FFR         1 TEMP              0 ****  ****    0 ROOT
