@<TRIPOS>MOLECULE
FFR
   67    72     1     0     0
SMALL
No Charge or Current Charge


@<TRIPOS>ATOM
      1 N1         104.4330   130.1140    83.0490 nb         1 FFR      -0.643000
      2 C15         99.2180   135.8450    83.9610 c2         1 FFR      -0.174200
      3 C17         98.9110   133.7350    82.6520 c6         1 FFR      -0.035200
      4 C21         97.2020   138.0940    81.0440 ca         1 FFR       0.585300
      5 C24         99.3110   140.2520    81.5300 ca         1 FFR      -0.125300
      6 C26        101.6510   139.5500    81.5390 ca         1 FFR      -0.095000
      7 C28        101.9120   140.3660    80.4220 ca         1 FFR       0.025000
      8 C1         103.2340   140.4210    79.8580 cg         1 FFR       0.310000
      9 C02        105.9140   128.1880    82.3180 c          1 FFR       0.611500
     10 N2         104.3050   140.4750    79.3960 n1         1 FFR      -0.424000
     11 O03        106.3390   127.0640    82.5690 o          1 FFR      -0.696500
     12 C04        104.9210   128.8560    83.3120 ca         1 FFR       0.314500
     13 C06        103.5720   130.6580    83.9350 ca         1 FFR       0.329500
     14 C07        103.1580   130.0280    85.0890 ca         1 FFR      -0.001600
     15 C08        103.6300   128.7480    85.3960 ca         1 FFR      -0.062000
     16 C09        104.5260   128.1570    84.4860 ca         1 FFR      -0.154000
     17 N10        102.2820   130.7890    85.8440 nc         1 FFR      -0.589100
     18 C11        102.1730   131.9070    85.1000 cd         1 FFR       0.382800
     19 C12        101.3200   133.0850    85.5790 c3         1 FFR       0.163500
     20 N13        100.5460   133.8240    84.5410 n3         1 FFR      -0.727600
     21 C14         99.9890   135.1010    85.0370 c6         1 FFR       0.201000
     22 C16         98.7000   135.2520    82.8490 ce         1 FFR      -0.190000
     23 C18         99.4830   133.0140    83.8990 c6         1 FFR       0.170800
     24 C19         97.9660   136.0210    81.7770 ca         1 FFR       0.460800
     25 N20         97.8180   137.3510    81.9850 nb         1 FFR      -0.769000
     26 C23         97.9060   140.1840    82.1260 c3         1 FFR       0.228900
     27 C25        100.3590   139.4950    82.0910 ca         1 FFR      -0.078000
     28 C29        100.8690   141.1280    79.8620 ca         1 FFR      -0.117000
     29 C30         99.5790   141.0710    80.4140 ca         1 FFR       0.186000
     30 C31         96.6710   137.5400    79.8720 ca         1 FFR      -0.186000
     31 C32         96.8120   136.1670    79.6380 ca         1 FFR      -0.048000
     32 C33         97.4770   135.4010    80.6050 ca         1 FFR      -0.190000
     33 N34        102.9490   131.8760    83.9180 na         1 FFR      -0.274300
     34 C35        103.0650   132.8410    82.8040 c3         1 FFR       0.076600
     35 C36        104.2250   133.8570    82.8990 cy         1 FFR       0.134300
     36 C37        104.1930   134.9810    83.9860 cy         1 FFR      -0.141400
     37 C38        103.4320   135.7840    82.8910 cy         1 FFR       0.137600
     38 O39        104.1350   134.9470    81.9050 oq         1 FFR      -0.443000
     39 F1          98.5950   141.8150    79.8610 f          1 FFR      -0.167000
     40 H1          99.1050   136.9130    84.1420 ha         1 FFR       0.189000
     41 H2          97.9660   133.2470    82.3820 hc         1 FFR       0.056700
     42 H3          99.5990   133.5800    81.8100 hc         1 FFR       0.056700
     43 H4         102.4490   138.9570    81.9820 ha         1 FFR       0.128000
     44 H6         103.3180   128.2320    86.3000 ha         1 FFR       0.106000
     45 H7         104.9170   127.1630    84.6870 ha         1 FFR       0.142000
     46 H8         102.0000   133.7780    86.0910 h1         1 FFR       0.047200
     47 H9         100.6300   132.7140    86.3490 h1         1 FFR       0.047200
     48 H11        100.8010   135.7480    85.4020 h1         1 FFR       0.036200
     49 H12         99.3180   134.9180    85.8900 h1         1 FFR       0.036200
     50 H13         98.6670   132.8310    84.6150 h1         1 FFR       0.045200
     51 H14         99.8660   132.0300    83.5900 h1         1 FFR       0.045200
     52 H15         97.5260   141.2060    82.2520 h1         1 FFR       0.062700
     53 H16         97.9340   139.7270    83.1250 h1         1 FFR       0.062700
     54 H17        100.1740   138.8580    82.9520 ha         1 FFR       0.118000
     55 H18        101.0530   141.7650    79.0000 ha         1 FFR       0.146000
     56 H19         96.1690   138.1790    79.1530 ha         1 FFR       0.134000
     57 H20         96.4210   135.7100    78.7300 ha         1 FFR       0.118000
     58 H21         97.6080   134.3390    80.4340 ha         1 FFR       0.132000
     59 H22        102.1230   133.3840    82.6850 h1         1 FFR       0.076700
     60 H23        103.2120   132.2750    81.8760 h1         1 FFR       0.076700
     61 H24        105.1870   133.3330    82.8390 h1         1 FFR       0.109700
     62 H25        103.6390   134.7680    84.9030 hc         1 FFR       0.056200
     63 H26        105.1760   135.3890    84.2420 hc         1 FFR       0.056200
     64 H27        103.6940   136.8450    82.8080 h1         1 FFR       0.039700
     65 H28        102.3460   135.6290    82.8650 h1         1 FFR       0.039700
     66 O01        106.2560   128.7930    81.3050 o          1 FFR      -0.696500
     67 O22         97.0440   139.4450    81.2380 os         1 FFR      -0.455300
@<TRIPOS>BOND
     1     1    12 ar  
     2     1    13 ar  
     3     2    21 1   
     4     2    22 2   
     5     2    40 1   
     6     3    22 1   
     7     3    23 1   
     8     3    41 1   
     9     3    42 1   
    10     4    25 ar  
    11     4    30 ar  
    12     4    67 1   
    13     5    26 1   
    14     5    27 ar  
    15     5    29 ar  
    16     6     7 ar  
    17     6    27 ar  
    18     6    43 1   
    19     7     8 1   
    20     7    28 ar  
    21     8    10 3   
    22     9    11 1   
    23     9    12 1   
    24     9    66 1   
    25    12    16 ar  
    26    13    14 ar  
    27    13    33 1   
    28    14    15 ar  
    29    14    17 1   
    30    15    16 ar  
    31    15    44 1   
    32    16    45 1   
    33    17    18 2   
    34    18    19 1   
    35    18    33 1   
    36    19    20 1   
    37    19    46 1   
    38    19    47 1   
    39    20    21 1   
    40    20    23 1   
    41    21    48 1   
    42    21    49 1   
    43    22    24 1   
    44    23    50 1   
    45    23    51 1   
    46    24    25 ar  
    47    24    32 ar  
    48    26    52 1   
    49    26    53 1   
    50    26    67 1   
    51    27    54 1   
    52    28    29 ar  
    53    28    55 1   
    54    29    39 1   
    55    30    31 ar  
    56    30    56 1   
    57    31    32 ar  
    58    31    57 1   
    59    32    58 1   
    60    33    34 1   
    61    34    35 1   
    62    34    59 1   
    63    34    60 1   
    64    35    36 1   
    65    35    38 1   
    66    35    61 1   
    67    36    37 1   
    68    36    62 1   
    69    36    63 1   
    70    37    38 1   
    71    37    64 1   
    72    37    65 1   
@<TRIPOS>SUBSTRUCTURE
     1 FFR         1 TEMP              0 ****  ****    0 ROOT
