@<TRIPOS>MOLECULE
FFS
   40    43     1     0     0
SMALL
bcc


@<TRIPOS>ATOM
      1 N1          -0.9450     0.2880     0.9090 nb         1 FFS      -0.860000
      2 N3           0.9310    -1.0010     0.2220 nb         1 FFS      -0.798000
      3 C4           2.3230     1.5980     0.1180 ca         1 FFS       0.196600
      4 C5           0.3360     0.1220     0.5260 ca         1 FFS       0.958900
      5 C6          -1.7070    -0.7760     1.0000 ca         1 FFS       0.773200
      6 C7          -3.5890     0.6540     1.6860 c3         1 FFS       0.203500
      7 C8          -4.3200     1.2140     0.5180 cc         1 FFS       0.195000
      8 C10         -5.7340     1.9940    -1.0200 cd         1 FFS      -0.275300
      9 C13         -1.9280    -3.2800     0.7460 ca         1 FFS      -0.078000
     10 C15          0.0060    -4.5180     0.0420 ca         1 FFS      -0.089000
     11 C17          0.1670    -2.1210     0.2980 ca         1 FFS       0.486600
     12 N            1.0160     1.3070     0.4690 nu         1 FFS      -0.736300
     13 C            4.5610     1.0630    -0.5510 ca         1 FFS       0.058400
     14 O           -3.6110     1.5160    -0.5920 os         1 FFS      -0.307800
     15 C1           4.9370     2.3940    -0.5550 ca         1 FFS      -0.159000
     16 C11         -5.6320     1.4850     0.3120 cd         1 FFS      -0.255300
     17 C12         -1.1880    -2.0880     0.6860 ca         1 FFS      -0.337600
     18 C14         -1.3420    -4.4810     0.4280 ca         1 FFS      -0.158000
     19 C16          0.7480    -3.3640    -0.0220 ca         1 FFS      -0.195300
     20 C18          3.2820     0.6410    -0.2240 ca         1 FFS      -0.155000
     21 C2           3.9730     3.3350    -0.2130 ca         1 FFS      -0.090000
     22 C3           2.6880     2.9510     0.1170 ca         1 FFS      -0.196000
     23 C9          -4.4760     1.9840    -1.5160 cc         1 FFS       0.240600
     24 N2          -2.9730    -0.6260     1.4090 nu         1 FFS      -0.868900
     25 CL           5.7350    -0.1450    -0.9760 cl         1 FFS      -0.120400
     26 H1          -2.8170     1.3400     2.0350 h1         1 FFS       0.078700
     27 H2          -4.3010     0.5240     2.5000 h1         1 FFS       0.078700
     28 H3          -6.6250     2.3160    -1.5340 ha         1 FFS       0.161000
     29 H4          -2.9700    -3.2760     1.0400 ha         1 FFS       0.119000
     30 H5           0.4660    -5.4650    -0.2070 ha         1 FFS       0.134000
     31 H6           0.4450     2.1030     0.7100 hn         1 FFS       0.454800
     32 H7           5.9420     2.6930    -0.8180 ha         1 FFS       0.148000
     33 H8          -6.4310     1.3380     1.0210 ha         1 FFS       0.157000
     34 H9          -1.9180    -5.3950     0.4780 ha         1 FFS       0.134000
     35 H10          1.7890    -3.3860    -0.3190 ha         1 FFS       0.152000
     36 H11          3.0270    -0.4070    -0.2320 ha         1 FFS       0.187000
     37 H12          4.2310     4.3850    -0.2080 ha         1 FFS       0.133000
     38 H13          1.9530     3.7040     0.3770 ha         1 FFS       0.131000
     39 H14         -4.0590     2.2700    -2.4680 h4         1 FFS       0.055100
     40 H15         -3.5850    -1.4240     1.4030 hn         1 FFS       0.443800
@<TRIPOS>BOND
     1     1     4 ar  
     2     1     5 ar  
     3     2     4 ar  
     4     2    11 ar  
     5     3    12 1   
     6     3    20 ar  
     7     3    22 ar  
     8     4    12 1   
     9     5    17 ar  
    10     5    24 1   
    11     6     7 1   
    12     6    24 1   
    13     6    26 1   
    14     6    27 1   
    15     7    14 1   
    16     7    16 2   
    17     8    16 1   
    18     8    23 2   
    19     8    28 1   
    20     9    17 ar  
    21     9    18 ar  
    22     9    29 1   
    23    10    18 ar  
    24    10    19 ar  
    25    10    30 1   
    26    11    17 ar  
    27    11    19 ar  
    28    12    31 1   
    29    13    15 ar  
    30    13    20 ar  
    31    13    25 1   
    32    14    23 1   
    33    15    21 ar  
    34    15    32 1   
    35    16    33 1   
    36    18    34 1   
    37    19    35 1   
    38    20    36 1   
    39    21    22 ar  
    40    21    37 1   
    41    22    38 1   
    42    23    39 1   
    43    24    40 1   
@<TRIPOS>SUBSTRUCTURE
     1 FFS         1 TEMP              0 ****  ****    0 ROOT
