@<TRIPOS>MOLECULE
FFS
   40    43     1     0     0
SMALL
No Charge or Current Charge


@<TRIPOS>ATOM
      1 N1          -1.0320     0.2400     1.1040 nb         1 FFS      -0.334000
      2 N3           0.7160    -1.0510     0.0970 nb         1 FFS      -0.272000
      3 C4           2.1830     1.5990     0.0130 ca         1 FFS       0.335000
      4 C5           0.1760     0.0890     0.5570 ca         1 FFS       0.432900
      5 C6          -1.7770    -0.8690     1.2240 ca         1 FFS       0.444900
      6 C7          -3.7540     0.5760     2.0280 c3         1 FFS       0.203500
      7 C8          -4.0740     1.2860     0.7310 cc         1 FFS       0.085300
      8 C10         -4.6950     1.9240    -1.3190 cd         1 FFS      -0.192000
      9 C13         -2.0710    -3.3180     0.9000 ca         1 FFS      -0.060000
     10 C15         -0.2650    -4.5820    -0.1290 ca         1 FFS      -0.071000
     11 C17         -0.0170    -2.1750     0.2110 ca         1 FFS       0.093000
     12 N            0.8890     1.2690     0.4260 nu         1 FFS      -0.929900
     13 C            4.5430     1.0910    -0.3100 ca         1 FFS       0.150000
     14 O           -3.7860     2.6290     0.6060 os         1 FFS      -0.219000
     15 C1           4.7620     2.3810    -0.8160 ca         1 FFS      -0.141000
     16 C11         -4.6340     0.8290    -0.4320 cd         1 FFS      -0.172000
     17 C12         -1.3100    -2.1310     0.7880 ca         1 FFS      -0.207000
     18 C14         -1.5450    -4.5370     0.4420 ca         1 FFS      -0.140000
     19 C16          0.4930    -3.4050    -0.2430 ca         1 FFS      -0.112000
     20 C18          3.2620     0.7010     0.1080 ca         1 FFS      -0.137000
     21 C2           3.6950     3.2890    -0.8990 ca         1 FFS      -0.072000
     22 C3           2.4110     2.8960    -0.4790 ca         1 FFS      -0.178000
     23 C9          -4.1720     3.0050    -0.6630 cc         1 FFS       0.130900
     24 N2          -3.0380    -0.7020     1.7980 nu         1 FFS      -0.924100
     25 Cl           5.8840    -0.0410    -0.1890 cl         1 FFS      -0.212000
     26 H1          -3.1520     1.2420     2.6620 h1         1 FFS       0.078700
     27 H2          -4.6980     0.3910     2.5600 h1         1 FFS       0.078700
     28 H3          -5.0810     1.9190    -2.3330 ha         1 FFS       0.143000
     29 H4          -3.0670    -3.3130     1.3370 ha         1 FFS       0.101000
     30 H5           0.1410    -5.5270    -0.4830 ha         1 FFS       0.116000
     31 H6           0.2990     2.0810     0.5990 hn         1 FFS       0.510000
     32 H7           5.7580     2.6770    -1.1370 ha         1 FFS       0.130000
     33 H8          -4.9610    -0.1870    -0.6280 ha         1 FFS       0.139000
     34 H9          -2.1330    -5.4480     0.5300 ha         1 FFS       0.116000
     35 H10          1.4850    -3.4470    -0.6870 ha         1 FFS       0.134000
     36 H11          3.1230    -0.2910     0.5190 ha         1 FFS       0.169000
     37 H12          3.8600     4.2930    -1.2860 ha         1 FFS       0.115000
     38 H13          1.5900     3.6040    -0.5480 ha         1 FFS       0.113000
     39 H14         -4.0230     4.0350    -0.9570 h4         1 FFS       0.055100
     40 H15         -3.5810    -1.5580     1.8940 hn         1 FFS       0.499000
@<TRIPOS>BOND
     1     1     4 ar  
     2     1     5 ar  
     3     2     4 ar  
     4     2    11 ar  
     5     3    12 1   
     6     3    20 ar  
     7     3    22 ar  
     8     4    12 1   
     9     5    17 ar  
    10     5    24 1   
    11     6     7 1   
    12     6    24 1   
    13     6    26 1   
    14     6    27 1   
    15     7    14 1   
    16     7    16 2   
    17     8    16 1   
    18     8    23 2   
    19     8    28 1   
    20     9    17 ar  
    21     9    18 ar  
    22     9    29 1   
    23    10    18 ar  
    24    10    19 ar  
    25    10    30 1   
    26    11    17 ar  
    27    11    19 ar  
    28    12    31 1   
    29    13    15 ar  
    30    13    20 ar  
    31    13    25 1   
    32    14    23 1   
    33    15    21 ar  
    34    15    32 1   
    35    16    33 1   
    36    18    34 1   
    37    19    35 1   
    38    20    36 1   
    39    21    22 ar  
    40    21    37 1   
    41    22    38 1   
    42    23    39 1   
    43    24    40 1   
@<TRIPOS>SUBSTRUCTURE
     1 FFS         1 TEMP              0 ****  ****    0 ROOT
