@<TRIPOS>MOLECULE
FFU
   42    44     1     0     0
SMALL
abcg2


@<TRIPOS>ATOM
      1 C10         13.2580    14.5760    30.6350 c6         1 FFU      -0.088400
      2 C11         12.8110    13.1800    30.2120 c6         1 FFU      -0.064400
      3 C12         13.4450    12.0510    31.0370 c6         1 FFU      -0.048000
      4 C13         12.7900    10.7240    30.6550 c3         1 FFU      -0.083100
      5 C14         14.9460    11.9470    30.7580 c3         1 FFU      -0.083100
      6 C15         13.1900    12.3310    32.5250 c6         1 FFU      -0.064400
      7 C02         16.0170    21.9580    33.9140 ca         1 FFU       0.227000
      8 C03         15.8170    20.8880    33.0800 ca         1 FFU      -0.202000
      9 C04         14.8870    19.9430    33.5230 ca         1 FFU       0.008800
     10 C06         13.5280    18.1840    33.7340 cc         1 FFU      -0.156300
     11 C09         12.9990    14.8090    32.1200 c6         1 FFU       0.106700
     12 C16         13.6500    13.7160    32.9660 c6         1 FFU      -0.088400
     13 C18         13.3180    18.9460    34.8490 cd         1 FFU      -0.125200
     14 C19         14.1810    20.0710    34.7380 ca         1 FFU      -0.181800
     15 C20         14.4470    21.1900    35.5240 ca         1 FFU       0.264000
     16 C22         15.3560    22.1400    35.1350 ca         1 FFU      -0.235000
     17 F21         13.7910    21.3320    36.6800 f          1 FFU      -0.163000
     18 N05         14.4800    18.7860    32.9420 na         1 FFU      -0.211700
     19 N08         13.4700    16.1280    32.5030 ns         1 FFU      -0.502900
     20 H1          14.3230    14.7150    30.4230 hc         1 FFU       0.044450
     21 H2          12.7260    15.3290    30.0490 hc         1 FFU       0.044450
     22 H3          11.7210    13.1150    30.3110 hc         1 FFU       0.044450
     23 H4          13.0290    13.0330    29.1500 hc         1 FFU       0.044450
     24 H5          13.2260     9.8930    31.2150 hc         1 FFU       0.033533
     25 H6          11.7170    10.7370    30.8580 hc         1 FFU       0.033533
     26 H7          12.9250    10.5120    29.5920 hc         1 FFU       0.033533
     27 H8          15.3900    11.1420    31.3480 hc         1 FFU       0.033533
     28 H9          15.1300    11.7260    29.7040 hc         1 FFU       0.033533
     29 H10         15.4890    12.8620    31.0000 hc         1 FFU       0.033533
     30 H11         12.1140    12.2390    32.7200 hc         1 FFU       0.044450
     31 H12         13.6780    11.5660    33.1360 hc         1 FFU       0.044450
     32 H13         16.3520    20.7860    32.1450 ha         1 FFU       0.138000
     33 H14         11.9200    14.7890    32.2920 h1         1 FFU       0.083700
     34 H15         14.7390    13.8010    32.8860 hc         1 FFU       0.044450
     35 H16         13.4050    13.8720    34.0190 hc         1 FFU       0.044450
     36 H17         12.6460    18.7120    35.6570 ha         1 FFU       0.231000
     37 H18         15.5600    23.0070    35.7490 ha         1 FFU       0.151000
     38 H19         14.7440    18.5050    32.0120 hn         1 FFU       0.352000
     39 H20         14.4020    16.3640    32.1980 hn         1 FFU       0.302500
     40 C07         12.8740    16.8920    33.4330 c          1 FFU       0.634300
     41 F01         16.9010    22.9000    33.5520 f          1 FFU      -0.173000
     42 O17         11.8480    16.5770    34.0210 o          1 FFU      -0.583100
@<TRIPOS>BOND
     1     1     2 1   
     2     1    11 1   
     3     1    20 1   
     4     1    21 1   
     5     2     3 1   
     6     2    22 1   
     7     2    23 1   
     8     3     4 1   
     9     3     5 1   
    10     3     6 1   
    11     4    24 1   
    12     4    25 1   
    13     4    26 1   
    14     5    27 1   
    15     5    28 1   
    16     5    29 1   
    17     6    12 1   
    18     6    30 1   
    19     6    31 1   
    20     7     8 ar  
    21     7    16 ar  
    22     7    41 1   
    23     8     9 ar  
    24     8    32 1   
    25     9    14 ar  
    26     9    18 1   
    27    10    13 2   
    28    10    18 1   
    29    10    40 1   
    30    11    12 1   
    31    11    19 1   
    32    11    33 1   
    33    12    34 1   
    34    12    35 1   
    35    13    14 1   
    36    13    36 1   
    37    14    15 ar  
    38    15    16 ar  
    39    15    17 1   
    40    16    37 1   
    41    18    38 1   
    42    19    39 1   
    43    19    40 1   
    44    40    42 2   
@<TRIPOS>SUBSTRUCTURE
     1 FFU         1 TEMP              0 ****  ****    0 ROOT
