@<TRIPOS>MOLECULE
FFU
   42    44     1     0     0
SMALL
No Charge or Current Charge


@<TRIPOS>ATOM
      1 C10         13.1980    14.5480    30.6170 c6         1 FFU      -0.088400
      2 C11         12.7340    13.1350    30.1730 c6         1 FFU      -0.064400
      3 C12         13.4050    11.9900    30.9960 c6         1 FFU      -0.048000
      4 C13         12.7590    10.6260    30.6090 c3         1 FFU      -0.083100
      5 C14         14.9270    11.8710    30.6610 c3         1 FFU      -0.083100
      6 C15         13.1820    12.2570    32.5180 c6         1 FFU      -0.064400
      7 C02         16.0610    22.1320    33.9790 ca         1 FFU       0.227000
      8 C03         15.9490    20.9530    33.2130 ca         1 FFU      -0.202000
      9 C04         15.0050    20.0010    33.6140 ca         1 FFU       0.008800
     10 C06         13.6700    18.1360    33.7830 cc         1 FFU      -0.156300
     11 C09         12.9420    14.7790    32.1280 c6         1 FFU       0.106700
     12 C16         13.6430    13.6720    32.9570 c6         1 FFU      -0.088400
     13 C18         13.3820    19.0300    34.8090 cd         1 FFU      -0.125200
     14 C19         14.2160    20.2020    34.7090 ca         1 FFU      -0.181800
     15 C20         14.3060    21.3630    35.4870 ca         1 FFU       0.264000
     16 C22         15.2450    22.3410    35.1130 ca         1 FFU      -0.235000
     17 F21         13.5140    21.5410    36.5670 f          1 FFU      -0.163000
     18 N05         14.6990    18.7760    33.0430 na         1 FFU      -0.211700
     19 N08         13.4260    16.1060    32.5240 ns         1 FFU      -0.502900
     20 H1          14.2620    14.6900    30.3850 hc         1 FFU       0.044450
     21 H2          12.6560    15.3060    30.0340 hc         1 FFU       0.044450
     22 H3          11.6420    13.0740    30.2800 hc         1 FFU       0.044450
     23 H4          12.9410    13.0010    29.1020 hc         1 FFU       0.044450
     24 H5          13.2030     9.7970    31.1740 hc         1 FFU       0.033533
     25 H6          11.6810    10.6210    30.8120 hc         1 FFU       0.033533
     26 H7          12.8910    10.4080    29.5420 hc         1 FFU       0.033533
     27 H8          15.3960    11.0540    31.2240 hc         1 FFU       0.033533
     28 H9          15.0850    11.6650    29.5950 hc         1 FFU       0.033533
     29 H10         15.4850    12.7830    30.8980 hc         1 FFU       0.033533
     30 H11         12.1160    12.1450    32.7590 hc         1 FFU       0.044450
     31 H12         13.7080    11.4990    33.1150 hc         1 FFU       0.044450
     32 H13         16.5780    20.7940    32.3410 ha         1 FFU       0.138000
     33 H14         11.8570    14.7310    32.3120 h1         1 FFU       0.083700
     34 H15         14.7340    13.7640    32.8660 hc         1 FFU       0.044450
     35 H16         13.4160    13.8110    34.0230 hc         1 FFU       0.044450
     36 H17         12.6300    18.8620    35.5790 ha         1 FFU       0.231000
     37 H18         15.3410    23.2530    35.6940 ha         1 FFU       0.151000
     38 H19         15.1560    18.4060    32.2160 hn         1 FFU       0.352000
     39 H20         14.1570    16.5280    31.9690 hn         1 FFU       0.302500
     40 C07         12.9820    16.8290    33.6080 c          1 FFU       0.634300
     41 F01         16.9610    23.0740    33.6240 f          1 FFU      -0.173000
     42 O17         12.0980    16.4200    34.3480 o          1 FFU      -0.583100
@<TRIPOS>BOND
     1     1     2 1   
     2     1    11 1   
     3     1    20 1   
     4     1    21 1   
     5     2     3 1   
     6     2    22 1   
     7     2    23 1   
     8     3     4 1   
     9     3     5 1   
    10     3     6 1   
    11     4    24 1   
    12     4    25 1   
    13     4    26 1   
    14     5    27 1   
    15     5    28 1   
    16     5    29 1   
    17     6    12 1   
    18     6    30 1   
    19     6    31 1   
    20     7     8 ar  
    21     7    16 ar  
    22     7    41 1   
    23     8     9 ar  
    24     8    32 1   
    25     9    14 ar  
    26     9    18 1   
    27    10    13 2   
    28    10    18 1   
    29    10    40 1   
    30    11    12 1   
    31    11    19 1   
    32    11    33 1   
    33    12    34 1   
    34    12    35 1   
    35    13    14 1   
    36    13    36 1   
    37    14    15 ar  
    38    15    16 ar  
    39    15    17 1   
    40    16    37 1   
    41    18    38 1   
    42    19    39 1   
    43    19    40 1   
    44    40    42 2   
@<TRIPOS>SUBSTRUCTURE
     1 FFU         1 TEMP              0 ****  ****    0 ROOT
