@<TRIPOS>MOLECULE
FFV
   43    46     1     0     0
SMALL
bcc


@<TRIPOS>ATOM
      1 N1          -1.4430     0.4910     0.1970 nb         1 FFV      -0.876000
      2 N3           0.3580    -1.0230    -0.1500 nb         1 FFV      -0.804000
      3 C4           2.0410     1.3910    -0.0560 ca         1 FFV       0.184600
      4 C5           2.5670     2.6880     0.0040 ca         1 FFV      -0.173000
      5 C6           3.9220     2.9170    -0.1270 ca         1 FFV      -0.130000
      6 C7           4.7790     1.8510    -0.3190 ca         1 FFV       0.103900
      7 C8           4.2770     0.5660    -0.3770 ca         1 FFV       0.008400
      8 C10         -0.5330    -2.0480    -0.1920 ca         1 FFV       0.487600
      9 C13         -2.3080    -4.2180    -0.2980 ca         1 FFV      -0.159000
     10 C15         -1.9210    -1.8510    -0.0420 ca         1 FFV      -0.339600
     11 C17         -6.0760     2.5440    -0.4900 cx         1 FFV      -0.121400
     12 N           -3.6200    -0.1630     0.3080 nu         1 FFV      -0.864900
     13 C           -3.9690     1.6160     1.9780 c3         1 FFV      -0.105100
     14 C1          -4.1140     1.1910     0.5220 c3         1 FFV       0.272500
     15 C11         -0.0560    -3.3580    -0.3940 ca         1 FFV      -0.197300
     16 C12         -0.9270    -4.4180    -0.4460 ca         1 FFV      -0.089000
     17 C14         -2.7940    -2.9480    -0.1000 ca         1 FFV      -0.077000
     18 C16         -5.5480     1.2590     0.0660 cx         1 FFV      -0.157700
     19 C18         -5.8600     1.3670    -1.3940 cx         1 FFV      -0.121400
     20 C2          -2.3320    -0.4780     0.1620 ca         1 FFV       0.773200
     21 C3          -0.1460     0.1680     0.0340 ca         1 FFV       0.958900
     22 C9           2.9180     0.3210    -0.2480 ca         1 FFV      -0.131000
     23 F            6.0940     2.0580    -0.4500 f          1 FFV      -0.129900
     24 N2           0.6690     1.2650     0.0840 nu         1 FFV      -0.737300
     25 CL           5.3640    -0.7520    -0.6150 cl         1 FFV      -0.084400
     26 H1           1.9040     3.5310     0.1530 ha         1 FFV       0.135000
     27 H2           4.3140     3.9250    -0.0820 ha         1 FFV       0.151000
     28 H3          -2.9880    -5.0580    -0.3420 ha         1 FFV       0.134000
     29 H4          -7.0910     2.8250    -0.2450 hc         1 FFV       0.075450
     30 H5          -5.3910     3.3800    -0.5720 hc         1 FFV       0.075450
     31 H6          -4.3040    -0.9000     0.3080 hn         1 FFV       0.443800
     32 H7          -4.5610     0.9740     2.6330 hc         1 FFV       0.045367
     33 H8          -2.9290     1.5670     2.3000 hc         1 FFV       0.045367
     34 H9          -4.3150     2.6420     2.1070 hc         1 FFV       0.045367
     35 H10         -3.5130     1.8580    -0.1010 h1         1 FFV       0.077700
     36 H11          1.0100    -3.5070    -0.5080 ha         1 FFV       0.151000
     37 H12         -0.5460    -5.4190    -0.6040 ha         1 FFV       0.134000
     38 H13         -3.8630    -2.8160     0.0090 ha         1 FFV       0.120000
     39 H14         -6.2420     0.6780     0.6680 hc         1 FFV       0.079700
     40 H15         -6.7280     0.8440    -1.7730 hc         1 FFV       0.075450
     41 H16         -5.0260     1.4050    -2.0850 hc         1 FFV       0.075450
     42 H17          2.5450    -0.6890    -0.2960 ha         1 FFV       0.191000
     43 H18          0.1650     2.1260     0.2320 hn         1 FFV       0.453800
@<TRIPOS>BOND
     1     1    20 ar  
     2     1    21 ar  
     3     2     8 ar  
     4     2    21 ar  
     5     3     4 ar  
     6     3    22 ar  
     7     3    24 1   
     8     4     5 ar  
     9     4    26 1   
    10     5     6 ar  
    11     5    27 1   
    12     6     7 ar  
    13     6    23 1   
    14     7    22 ar  
    15     7    25 1   
    16     8    10 ar  
    17     8    15 ar  
    18     9    16 ar  
    19     9    17 ar  
    20     9    28 1   
    21    10    17 ar  
    22    10    20 ar  
    23    11    18 1   
    24    11    19 1   
    25    11    29 1   
    26    11    30 1   
    27    12    14 1   
    28    12    20 1   
    29    12    31 1   
    30    13    14 1   
    31    13    32 1   
    32    13    33 1   
    33    13    34 1   
    34    14    18 1   
    35    14    35 1   
    36    15    16 ar  
    37    15    36 1   
    38    16    37 1   
    39    17    38 1   
    40    18    19 1   
    41    18    39 1   
    42    19    40 1   
    43    19    41 1   
    44    21    24 1   
    45    22    42 1   
    46    24    43 1   
@<TRIPOS>SUBSTRUCTURE
     1 FFV         1 TEMP              0 ****  ****    0 ROOT
