@<TRIPOS>MOLECULE
FFV
   43    46     1     0     0
SMALL
No Charge or Current Charge


@<TRIPOS>ATOM
      1 N1          -1.3900     0.5320     0.0530 nb         1 FFV      -0.350000
      2 N3           0.3840    -1.0350    -0.3130 nb         1 FFV      -0.278000
      3 C4           2.1550     1.4140    -0.1190 ca         1 FFV       0.323000
      4 C5           2.6910     2.6200    -0.6070 ca         1 FFV      -0.155000
      5 C6           4.0840     2.8220    -0.6470 ca         1 FFV      -0.112000
      6 C7           4.9480     1.8160    -0.1870 ca         1 FFV       0.139000
      7 C8           4.4200     0.6120     0.3180 ca         1 FFV       0.100000
      8 C10         -0.4940    -2.0560    -0.3490 ca         1 FFV       0.094000
      9 C13         -2.3260    -4.2020    -0.4230 ca         1 FFV      -0.141000
     10 C15         -1.8790    -1.8130    -0.1790 ca         1 FFV      -0.209000
     11 C17         -6.3530     2.5250    -0.1450 cx         1 FFV      -0.121400
     12 N           -3.6160    -0.1180     0.1880 nu         1 FFV      -0.920100
     13 C           -3.9740     1.4830     2.0270 c3         1 FFV      -0.105100
     14 C1          -4.1700     1.1960     0.5250 c3         1 FFV       0.272500
     15 C11         -0.0460    -3.3730    -0.5560 ca         1 FFV      -0.114000
     16 C12         -0.9540    -4.4430    -0.5930 ca         1 FFV      -0.071000
     17 C14         -2.7920    -2.8930    -0.2160 ca         1 FFV      -0.059000
     18 C16         -5.6440     1.2190     0.1360 cx         1 FFV      -0.157700
     19 C18         -6.0780     1.5570    -1.2730 cx         1 FFV      -0.121400
     20 C2          -2.2790    -0.4720     0.0230 ca         1 FFV       0.444900
     21 C3          -0.1080     0.1970    -0.1040 ca         1 FFV       0.432900
     22 C9           3.0290     0.4160     0.3550 ca         1 FFV      -0.113000
     23 F            6.2850     2.0160    -0.2270 f          1 FFV      -0.165000
     24 N2           0.7640     1.2720    -0.0930 nu         1 FFV      -0.930900
     25 Cl           5.4870    -0.6570     0.9170 cl         1 FFV      -0.176000
     26 H1           2.0290     3.4040    -0.9660 ha         1 FFV       0.117000
     27 H2           4.4930     3.7540    -1.0310 ha         1 FFV       0.133000
     28 H3          -3.0300    -5.0310    -0.4510 ha         1 FFV       0.116000
     29 H4          -7.3810     2.6270     0.1970 hc         1 FFV       0.075450
     30 H5          -5.7710     3.4430    -0.1130 hc         1 FFV       0.075450
     31 H6          -4.2820    -0.8780     0.0860 hn         1 FFV       0.499000
     32 H7          -4.4740     0.7230     2.6390 hc         1 FFV       0.045367
     33 H8          -2.9100     1.4920     2.2880 hc         1 FFV       0.045367
     34 H9          -4.3930     2.4630     2.2860 hc         1 FFV       0.045367
     35 H10         -3.6530     1.9790    -0.0510 h1         1 FFV       0.077700
     36 H11          1.0160    -3.5660    -0.6880 ha         1 FFV       0.133000
     37 H12         -0.5950    -5.4570    -0.7540 ha         1 FFV       0.116000
     38 H13         -3.8600    -2.7370    -0.0860 ha         1 FFV       0.102000
     39 H14         -6.2250     0.4630     0.6590 hc         1 FFV       0.079700
     40 H15         -6.9210     1.0090    -1.6890 hc         1 FFV       0.075450
     41 H16         -5.3100     1.8240    -1.9950 hc         1 FFV       0.075450
     42 H17          2.6410    -0.5050     0.7700 ha         1 FFV       0.173000
     43 H18          0.2620     2.1570    -0.1530 hn         1 FFV       0.509000
@<TRIPOS>BOND
     1     1    20 ar  
     2     1    21 ar  
     3     2     8 ar  
     4     2    21 ar  
     5     3     4 ar  
     6     3    22 ar  
     7     3    24 1   
     8     4     5 ar  
     9     4    26 1   
    10     5     6 ar  
    11     5    27 1   
    12     6     7 ar  
    13     6    23 1   
    14     7    22 ar  
    15     7    25 1   
    16     8    10 ar  
    17     8    15 ar  
    18     9    16 ar  
    19     9    17 ar  
    20     9    28 1   
    21    10    17 ar  
    22    10    20 ar  
    23    11    18 1   
    24    11    19 1   
    25    11    29 1   
    26    11    30 1   
    27    12    14 1   
    28    12    20 1   
    29    12    31 1   
    30    13    14 1   
    31    13    32 1   
    32    13    33 1   
    33    13    34 1   
    34    14    18 1   
    35    14    35 1   
    36    15    16 ar  
    37    15    36 1   
    38    16    37 1   
    39    17    38 1   
    40    18    19 1   
    41    18    39 1   
    42    19    40 1   
    43    19    41 1   
    44    21    24 1   
    45    22    42 1   
    46    24    43 1   
@<TRIPOS>SUBSTRUCTURE
     1 FFV         1 TEMP              0 ****  ****    0 ROOT
