@<TRIPOS>MOLECULE
FFW
   44    47     1     0     0
SMALL
No Charge or Current Charge


@<TRIPOS>ATOM
      1 C03          4.6750     1.0720    -0.7310 c          1 FFW       0.448700
      2 C06          2.1550     1.1650    -1.2910 c3         1 FFW      -0.016500
      3 C07          1.1350     0.2940    -0.5960 cc         1 FFW      -0.133400
      4 C08          1.2800    -1.1050    -0.2850 ca         1 FFW      -0.044800
      5 C09         -0.0910     0.6470    -0.0440 cd         1 FFW       0.022400
      6 C10          0.1720    -1.5280     0.4110 ca         1 FFW      -0.109000
      7 N11         -0.7650    -0.4530     0.5430 n          1 FFW      -0.099600
      8 C13          2.3420    -1.9720    -0.5810 ca         1 FFW      -0.112000
      9 C14          2.2580    -3.3110    -0.1540 ca         1 FFW       0.126100
     10 C17         -2.0390    -0.4770     1.1770 c          1 FFW       0.635700
     11 C20         -4.1180     0.9160     1.5530 ca         1 FFW      -0.057000
     12 C21         -3.2470     0.7390    -0.7140 ca         1 FFW      -0.057000
     13 C22         -5.1600     1.7370     1.0860 ca         1 FFW      -0.114500
     14 C02          3.3270     1.5370    -0.4150 cc         1 FFW       0.267300
     15 C12         -0.5620     2.0860     0.0450 c3         1 FFW      -0.043900
     16 C15          0.0560    -2.8620     0.8400 ca         1 FFW      -0.065000
     17 C16          1.1120    -3.7550     0.5570 ca         1 FFW      -0.177000
     18 C19         -3.1360     0.4290     0.6620 ca         1 FFW      -0.158600
     19 C23         -4.2900     1.5600    -1.1760 ca         1 FFW      -0.114500
     20 C24         -5.2420     2.0620    -0.2760 ca         1 FFW       0.140000
     21 C27          3.3300    -5.5330    -0.0650 c3         1 FFW       0.149900
     22 N01          3.2560     2.3320     0.6420 nd         1 FFW      -0.234700
     23 N04          5.4280     1.5700     0.2840 ns         1 FFW      -0.405400
     24 O05          5.0910     0.4180    -1.6780 o          1 FFW      -0.512000
     25 O18         -2.2900    -1.2810     2.0690 o          1 FFW      -0.523100
     26 O26          3.3140    -4.1480    -0.4550 os         1 FFW      -0.344100
     27 O28          4.6100     2.4100     1.1050 os         1 FFW      -0.031100
     28 Cl2         -6.5470     3.0870    -0.8580 cl         1 FFW      -0.189000
     29 H1           2.5090     0.6470    -2.1900 hc         1 FFW       0.076200
     30 H2           1.6830     2.0820    -1.6610 hc         1 FFW       0.076200
     31 H3           3.2130    -1.6260    -1.1290 ha         1 FFW       0.130000
     32 H4          -4.0680     0.6690     2.6130 ha         1 FFW       0.134500
     33 H5          -2.5320     0.3380    -1.4310 ha         1 FFW       0.134500
     34 H6          -5.9050     2.1190     1.7800 ha         1 FFW       0.136500
     35 H7          -1.0660     2.3990    -0.8760 hc         1 FFW       0.055367
     36 H8          -1.2420     2.2510     0.8880 hc         1 FFW       0.055367
     37 H9           0.2820     2.7670     0.2000 hc         1 FFW       0.055367
     38 H10         -0.8230    -3.2140     1.3730 ha         1 FFW       0.136000
     39 H11          1.0210    -4.7840     0.8910 ha         1 FFW       0.119000
     40 H12         -4.3660     1.8000    -2.2340 ha         1 FFW       0.136500
     41 H13          2.4860    -6.0740    -0.5130 h1         1 FFW       0.039700
     42 H14          4.2580    -6.0120    -0.4020 h1         1 FFW       0.039700
     43 H15          3.2730    -5.6320     1.0270 h1         1 FFW       0.039700
     44 H16          6.3760     1.8920     0.1100 hn         1 FFW       0.385500
@<TRIPOS>BOND
     1     1    14 1   
     2     1    23 1   
     3     1    24 2   
     4     2     3 1   
     5     2    14 1   
     6     2    29 1   
     7     2    30 1   
     8     3     4 1   
     9     3     5 2   
    10     4     6 ar  
    11     4     8 ar  
    12     5     7 1   
    13     5    15 1   
    14     6     7 1   
    15     6    16 ar  
    16     7    10 1   
    17     8     9 ar  
    18     8    31 1   
    19     9    17 ar  
    20     9    26 1   
    21    10    18 1   
    22    10    25 2   
    23    11    13 ar  
    24    11    18 ar  
    25    11    32 1   
    26    12    18 ar  
    27    12    19 ar  
    28    12    33 1   
    29    13    20 ar  
    30    13    34 1   
    31    14    22 2   
    32    15    35 1   
    33    15    36 1   
    34    15    37 1   
    35    16    17 ar  
    36    16    38 1   
    37    17    39 1   
    38    19    20 ar  
    39    19    40 1   
    40    20    28 1   
    41    21    26 1   
    42    21    41 1   
    43    21    42 1   
    44    21    43 1   
    45    22    27 1   
    46    23    27 1   
    47    23    44 1   
@<TRIPOS>SUBSTRUCTURE
     1 FFW         1 TEMP              0 ****  ****    0 ROOT
