@<TRIPOS>MOLECULE
FFW
   44    47     1     0     0
SMALL
bcc


@<TRIPOS>ATOM
      1 C03          4.5720     2.0640    -0.8960 c          1 FFW       0.591200
      2 C06          2.2000     1.0270    -1.2830 c3         1 FFW      -0.016500
      3 C07          1.1610     0.2160    -0.5880 cc         1 FFW      -0.133400
      4 C08          1.2920    -1.1790    -0.2730 ca         1 FFW      -0.044800
      5 C09         -0.0270     0.6500    -0.0960 cd         1 FFW       0.022400
      6 C10          0.1450    -1.5550     0.4380 ca         1 FFW      -0.016400
      7 N11         -0.6840    -0.4300     0.5150 n          1 FFW      -0.259200
      8 C13          2.2900    -2.1030    -0.5490 ca         1 FFW      -0.130000
      9 C14          2.1270    -3.4130    -0.1140 ca         1 FFW       0.126100
     10 C17         -1.9050    -0.4210     1.1760 c          1 FFW       0.702700
     11 C20         -3.8320     1.1000     1.5220 ca         1 FFW      -0.075000
     12 C21         -3.2010     0.5400    -0.7330 ca         1 FFW      -0.075000
     13 C22         -4.8870     1.8580     1.0450 ca         1 FFW      -0.132500
     14 C02          3.3690     1.3590    -0.4260 cc         1 FFW       0.267300
     15 C12         -0.5210     2.0550    -0.0570 c3         1 FFW      -0.043900
     16 C15         -0.0290    -2.8600     0.8680 ca         1 FFW      -0.083000
     17 C16          0.9700    -3.7830     0.5870 ca         1 FFW      -0.195000
     18 C19         -2.9730     0.4560     0.6370 ca         1 FFW      -0.158600
     19 C23         -4.2710     1.2730    -1.2210 ca         1 FFW      -0.132500
     20 C24         -5.0970     1.9340    -0.3250 ca         1 FFW       0.048400
     21 C27          3.0310    -5.6090     0.0230 c3         1 FFW       0.126700
     22 N01          3.4630     1.0930     0.8220 nd         1 FFW      -0.333200
     23 N04          5.3060     2.1040     0.2290 ns         1 FFW      -0.472400
     24 O05          4.8460     2.4930    -2.0030 o          1 FFW      -0.587500
     25 O18         -2.1090    -1.1530     2.1180 o          1 FFW      -0.523100
     26 O26          3.1300    -4.2670    -0.4090 os         1 FFW      -0.320900
     27 O28          4.6440     1.5460     1.2810 os         1 FFW       0.067400
     28 CL2         -6.4210     2.8680    -0.9260 cl         1 FFW      -0.097400
     29 H1           2.5690     0.4920    -2.1640 hc         1 FFW       0.076200
     30 H2           1.7870     1.9600    -1.6720 hc         1 FFW       0.076200
     31 H3           3.1820    -1.8200    -1.0960 ha         1 FFW       0.148000
     32 H4          -3.6700     1.0290     2.5900 ha         1 FFW       0.152500
     33 H5          -2.5580     0.0210    -1.4320 ha         1 FFW       0.152500
     34 H6          -5.5410     2.3780     1.7320 ha         1 FFW       0.154500
     35 H7          -1.2690     2.2690    -0.8190 hc         1 FFW       0.055367
     36 H8          -0.9560     2.3080     0.9100 hc         1 FFW       0.055367
     37 H9           0.3140     2.7330    -0.2200 hc         1 FFW       0.055367
     38 H10         -0.9030    -3.1810     1.4130 ha         1 FFW       0.154000
     39 H11          0.8310    -4.7990     0.9310 ha         1 FFW       0.137000
     40 H12         -4.4550     1.3270    -2.2840 ha         1 FFW       0.154500
     41 H13          2.1670    -6.1190    -0.4120 h1         1 FFW       0.039700
     42 H14          3.9360    -6.1090    -0.3130 h1         1 FFW       0.039700
     43 H15          2.9720    -5.6860     1.1120 h1         1 FFW       0.039700
     44 H16          6.1600     2.5930     0.4630 hn         1 FFW       0.385500
@<TRIPOS>BOND
     1     1    14 1   
     2     1    23 1   
     3     1    24 2   
     4     2     3 1   
     5     2    14 1   
     6     2    29 1   
     7     2    30 1   
     8     3     4 1   
     9     3     5 2   
    10     4     6 ar  
    11     4     8 ar  
    12     5     7 1   
    13     5    15 1   
    14     6     7 1   
    15     6    16 ar  
    16     7    10 1   
    17     8     9 ar  
    18     8    31 1   
    19     9    17 ar  
    20     9    26 1   
    21    10    18 1   
    22    10    25 2   
    23    11    13 ar  
    24    11    18 ar  
    25    11    32 1   
    26    12    18 ar  
    27    12    19 ar  
    28    12    33 1   
    29    13    20 ar  
    30    13    34 1   
    31    14    22 2   
    32    15    35 1   
    33    15    36 1   
    34    15    37 1   
    35    16    17 ar  
    36    16    38 1   
    37    17    39 1   
    38    19    20 ar  
    39    19    40 1   
    40    20    28 1   
    41    21    26 1   
    42    21    41 1   
    43    21    42 1   
    44    21    43 1   
    45    22    27 1   
    46    23    27 1   
    47    23    44 1   
@<TRIPOS>SUBSTRUCTURE
     1 FFW         1 TEMP              0 ****  ****    0 ROOT
