@<TRIPOS>MOLECULE
FFX
   19    19     1     0     0
SMALL
No Charge or Current Charge


@<TRIPOS>ATOM
      1 F1          -2.2690    -1.6680     0.2150 f          1 FFX      -0.234000
      2 C1          -1.1850    -0.9500    -0.3260 c6         1 FFX       0.405300
      3 C2          -1.2770     0.5320     0.1790 c6         1 FFX       0.092300
      4 O2          -2.4690     1.2020    -0.3200 oh         1 FFX      -0.702500
      5 C3           0.0240     1.2910    -0.2510 c6         1 FFX       0.179300
      6 O3           0.0710     2.6220     0.2950 oh         1 FFX      -0.637000
      7 C4           1.2990     0.5180     0.2010 c6         1 FFX       0.092300
      8 O4           2.4900     1.2180    -0.2490 oh         1 FFX      -0.702500
      9 C5           1.2150    -0.9520    -0.3270 c6         1 FFX       0.405300
     10 F5           2.2990    -1.6760     0.2040 f          1 FFX      -0.234000
     11 O5           0.0150    -1.5830     0.1550 os         1 FFX      -0.490000
     12 H1          -1.2450    -1.0050    -1.4230 h2         1 FFX       0.060200
     13 H2          -1.2970     0.5040     1.2790 h1         1 FFX       0.071700
     14 HO2         -3.2470     0.7870     0.1240 ho         1 FFX       0.522000
     15 H3           0.0360     1.3450    -1.3510 h1         1 FFX       0.055700
     16 HO3          1.0110     2.8960     0.1930 ho         1 FFX       0.462000
     17 H4           1.2900     0.4680     1.3010 h1         1 FFX       0.071700
     18 HO4          3.2730     0.7180     0.0880 ho         1 FFX       0.522000
     19 H5           1.2710    -0.9940    -1.4250 h2         1 FFX       0.060200
@<TRIPOS>BOND
     1     1     2 1   
     2     2     3 1   
     3     2    11 1   
     4     2    12 1   
     5     3     4 1   
     6     3     5 1   
     7     3    13 1   
     8     4    14 1   
     9     5     6 1   
    10     5     7 1   
    11     5    15 1   
    12     6    16 1   
    13     7     8 1   
    14     7     9 1   
    15     7    17 1   
    16     8    18 1   
    17     9    10 1   
    18     9    11 1   
    19     9    19 1   
@<TRIPOS>SUBSTRUCTURE
     1 FFX         1 TEMP              0 ****  ****    0 ROOT
