@<TRIPOS>MOLECULE
FFX
   19    19     1     0     0
SMALL
bcc


@<TRIPOS>ATOM
      1 F1          -2.1880    -1.6430     0.1820 f          1 FFX      -0.215300
      2 C1          -1.1440    -0.9170    -0.3200 c6         1 FFX       0.363400
      3 C2          -1.2150     0.5150     0.2020 c6         1 FFX       0.069100
      4 O2          -2.3210     1.1840    -0.3360 oh         1 FFX      -0.580300
      5 C3           0.0500     1.2480    -0.2220 c6         1 FFX       0.156100
      6 O3           0.0350     2.5220     0.3590 oh         1 FFX      -0.574800
      7 C4           1.2860     0.4560     0.2040 c6         1 FFX       0.069100
      8 O4           2.4110     1.1080    -0.3240 oh         1 FFX      -0.580300
      9 C5           1.1760    -0.9680    -0.3200 c6         1 FFX       0.363400
     10 F5           2.1880    -1.7350     0.1850 f          1 FFX      -0.215300
     11 O5           0.0020    -1.5670     0.1280 os         1 FFX      -0.443600
     12 H1          -1.2140    -0.9390    -1.4160 h2         1 FFX       0.060200
     13 H2          -1.2510     0.4760     1.3000 h1         1 FFX       0.071700
     14 HO2         -3.1120     0.9070     0.1360 ho         1 FFX       0.423000
     15 H3           0.0530     1.3160    -1.3230 h1         1 FFX       0.055700
     16 HO3          0.8030     3.0050     0.0370 ho         1 FFX       0.423000
     17 H4           1.3160     0.4150     1.3020 h1         1 FFX       0.071700
     18 HO4          3.1820     0.8850     0.2060 ho         1 FFX       0.423000
     19 H5           1.2470    -0.9960    -1.4170 h2         1 FFX       0.060200
@<TRIPOS>BOND
     1     1     2 1   
     2     2     3 1   
     3     2    11 1   
     4     2    12 1   
     5     3     4 1   
     6     3     5 1   
     7     3    13 1   
     8     4    14 1   
     9     5     6 1   
    10     5     7 1   
    11     5    15 1   
    12     6    16 1   
    13     7     8 1   
    14     7     9 1   
    15     7    17 1   
    16     8    18 1   
    17     9    10 1   
    18     9    11 1   
    19     9    19 1   
@<TRIPOS>SUBSTRUCTURE
     1 FFX         1 TEMP              0 ****  ****    0 ROOT
