@<TRIPOS>MOLECULE
FFY
   56    60     1     0     0
SMALL
No Charge or Current Charge


@<TRIPOS>ATOM
      1 N1          -0.4010    -0.8530     0.0000 nb         1 FFY      -0.335000
      2 N3           1.6180     0.4260    -0.0810 nb         1 FFY      -0.292000
      3 C4          -1.7680     1.8300    -0.0560 ca         1 FFY       0.331000
      4 C5          -2.6990     1.0820     0.6940 ca         1 FFY      -0.121000
      5 C6          -4.0490     1.4750     0.7580 ca         1 FFY      -0.118000
      6 C7          -4.4730     2.6250     0.0750 ca         1 FFY       0.140000
      7 C8          -3.5470     3.3870    -0.6630 ca         1 FFY       0.103000
      8 C10          2.3680    -0.6960    -0.0320 ca         1 FFY       0.114000
      9 C13          3.9090    -3.0650     0.0370 ca         1 FFY      -0.142000
     10 C15          1.7330    -1.9640     0.0290 ca         1 FFY      -0.215000
     11 C17          5.2340     1.0290    -1.1980 c2         1 FFY      -0.256200
     12 C20          4.4480     1.5810     1.1200 c6         1 FFY      -0.073200
     13 C21         -2.2490    -4.7220    -0.2300 cx         1 FFY      -0.159700
     14 C22         -3.6660    -5.0100    -0.6710 cx         1 FFY      -0.120400
     15 N           -0.4070    -3.1710     0.0960 nu         1 FFY      -0.917100
     16 C           -2.2240    -3.1430     1.7550 c3         1 FFY      -0.107100
     17 C1          -1.8510    -3.3390     0.2730 c3         1 FFY       0.273500
     18 C11          3.7840    -0.6310    -0.0540 ca         1 FFY      -0.054800
     19 C12          4.5420    -1.8160    -0.0260 ca         1 FFY      -0.064000
     20 C14          2.5090    -3.1440     0.0670 ca         1 FFY      -0.058000
     21 C16          4.5100     0.6700    -0.1130 ce         1 FFY      -0.037400
     22 C18          6.0500     2.3100    -1.2880 c6         1 FFY       0.188000
     23 C19          5.5340     2.6820     1.0800 c6         1 FFY       0.150800
     24 C2           0.3190    -1.9810     0.0460 ca         1 FFY       0.441900
     25 C23         -2.5510    -4.9690    -1.6910 cx         1 FFY      -0.120400
     26 C3           0.2870     0.2910    -0.0500 ca         1 FFY       0.434900
     27 C9          -2.2000     2.9900    -0.7210 ca         1 FFY      -0.153000
     28 F           -5.7720     2.9980     0.1410 f          1 FFY      -0.164000
     29 N2          -0.4160     1.4810    -0.1370 nu         1 FFY      -0.931900
     30 N4           5.6010     3.2840    -0.2700 n7         1 FFY      -0.848400
     31 Cl          -4.0570     4.8410    -1.5200 cl         1 FFY      -0.171000
     32 H1          -2.3790     0.2050     1.2470 ha         1 FFY       0.154000
     33 H2          -4.7620     0.8940     1.3370 ha         1 FFY       0.131000
     34 H3           4.5050    -3.9750     0.0630 ha         1 FFY       0.118000
     35 H4           5.2860     0.3750    -2.0690 ha         1 FFY       0.176000
     36 H5           3.4600     2.0570     1.1720 hc         1 FFY       0.060200
     37 H6           4.5550     0.9880     2.0370 hc         1 FFY       0.060200
     38 H7          -1.7440    -5.5230     0.3080 hc         1 FFY       0.079700
     39 H8          -4.0890    -5.9800    -0.4200 hc         1 FFY       0.075950
     40 H9          -4.3810    -4.1890    -0.6710 hc         1 FFY       0.075950
     41 H10          0.1470    -4.0210     0.0480 hn         1 FFY       0.499000
     42 H11         -1.9450    -2.1410     2.1010 hc         1 FFY       0.046700
     43 H12         -3.3050    -3.2590     1.8950 hc         1 FFY       0.046700
     44 H13         -1.7160    -3.8800     2.3880 hc         1 FFY       0.046700
     45 H14         -2.3920    -2.5910    -0.3260 h1         1 FFY       0.074700
     46 H15          5.6280    -1.7640    -0.0460 ha         1 FFY       0.119000
     47 H16          2.0470    -4.1270     0.1170 ha         1 FFY       0.103000
     48 H17          7.1140     2.0740    -1.1300 h1         1 FFY       0.055200
     49 H18          5.9540     2.7500    -2.2930 h1         1 FFY       0.055200
     50 H19          5.3020     3.4550     1.8290 h1         1 FFY       0.052200
     51 H20          6.5120     2.2490     1.3410 h1         1 FFY       0.052200
     52 H21         -2.5150    -4.1200    -2.3700 hc         1 FFY       0.075950
     53 H22         -2.2230    -5.9110    -2.1240 hc         1 FFY       0.075950
     54 H23         -1.4940     3.5830    -1.2950 ha         1 FFY       0.130000
     55 H24          0.1920     2.2540    -0.4020 hn         1 FFY       0.511000
     56 H25          4.6530     3.5860    -0.5230 hn         1 FFY       0.407000
@<TRIPOS>BOND
     1     1    24 ar  
     2     1    26 ar  
     3     2     8 ar  
     4     2    26 ar  
     5     3     4 ar  
     6     3    27 ar  
     7     3    29 1   
     8     4     5 ar  
     9     4    32 1   
    10     5     6 ar  
    11     5    33 1   
    12     6     7 ar  
    13     6    28 1   
    14     7    27 ar  
    15     7    31 1   
    16     8    10 ar  
    17     8    18 ar  
    18     9    19 ar  
    19     9    20 ar  
    20     9    34 1   
    21    10    20 ar  
    22    10    24 ar  
    23    11    21 2   
    24    11    22 1   
    25    11    35 1   
    26    12    21 1   
    27    12    23 1   
    28    12    36 1   
    29    12    37 1   
    30    13    14 1   
    31    13    17 1   
    32    13    25 1   
    33    13    38 1   
    34    14    25 1   
    35    14    39 1   
    36    14    40 1   
    37    15    17 1   
    38    15    24 1   
    39    15    41 1   
    40    16    17 1   
    41    16    42 1   
    42    16    43 1   
    43    16    44 1   
    44    17    45 1   
    45    18    19 ar  
    46    18    21 1   
    47    19    46 1   
    48    20    47 1   
    49    22    30 1   
    50    22    48 1   
    51    22    49 1   
    52    23    30 1   
    53    23    50 1   
    54    23    51 1   
    55    25    52 1   
    56    25    53 1   
    57    26    29 1   
    58    27    54 1   
    59    29    55 1   
    60    30    56 1   
@<TRIPOS>SUBSTRUCTURE
     1 FFY         1 TEMP              0 ****  ****    0 ROOT
