@<TRIPOS>MOLECULE
FFY
   56    60     1     0     0
SMALL
abcg2


@<TRIPOS>ATOM
      1 N1          -0.3910    -0.8850     0.0900 nb         1 FFY      -0.335000
      2 N3           1.6000     0.3920    -0.1040 nb         1 FFY      -0.292000
      3 C4          -1.7510     1.7250    -0.0380 ca         1 FFY       0.331000
      4 C5          -2.7770     0.7860     0.1080 ca         1 FFY      -0.121000
      5 C6          -4.0990     1.2000     0.1620 ca         1 FFY      -0.118000
      6 C7          -4.4200     2.5360     0.0720 ca         1 FFY       0.140000
      7 C8          -3.4180     3.4790    -0.0750 ca         1 FFY       0.103000
      8 C10          2.3340    -0.7400    -0.0470 ca         1 FFY       0.114000
      9 C13          3.8900    -3.0720    -0.0110 ca         1 FFY      -0.142000
     10 C15          1.7340    -2.0130     0.0690 ca         1 FFY      -0.215000
     11 C17          5.2680     0.9250    -1.2250 c2         1 FFY      -0.256200
     12 C20          4.2340     1.6650     0.8920 c6         1 FFY      -0.073200
     13 C21         -2.2440    -4.6500    -0.0250 cx         1 FFY      -0.159700
     14 C22         -3.5560    -4.8780    -0.7050 cx         1 FFY      -0.120400
     15 N           -0.3880    -3.1530     0.2630 nu         1 FFY      -0.917100
     16 C           -2.3420    -2.8840     1.7480 c3         1 FFY      -0.107100
     17 C1          -1.8370    -3.2500     0.3570 c3         1 FFY       0.273500
     18 C11          3.7510    -0.6470    -0.1290 ca         1 FFY      -0.054800
     19 C12          4.4910    -1.8100    -0.1130 ca         1 FFY      -0.064000
     20 C14          2.5270    -3.1720     0.0850 ca         1 FFY      -0.058000
     21 C16          4.4280     0.6640    -0.2210 ce         1 FFY      -0.037400
     22 C18          6.0440     2.2050    -1.3430 c6         1 FFY       0.188000
     23 C19          5.3830     2.6670     0.9170 c6         1 FFY       0.150800
     24 C2           0.2930    -2.0120     0.1460 ca         1 FFY       0.441900
     25 C23         -2.2780    -5.0510    -1.4670 cx         1 FFY      -0.120400
     26 C3           0.2970     0.2530    -0.0350 ca         1 FFY       0.434900
     27 C9          -2.0960     3.0780    -0.1290 ca         1 FFY      -0.153000
     28 F           -5.6960     2.9310     0.1240 f          1 FFY      -0.164000
     29 N2          -0.3990     1.4300    -0.1010 nu         1 FFY      -0.931900
     30 N4           5.6840     3.2310    -0.3850 n7         1 FFY      -0.848400
     31 CL          -3.8280     5.1460    -0.1900 cl         1 FFY      -0.171000
     32 H1          -2.5440    -0.2620     0.1780 ha         1 FFY       0.154000
     33 H2          -4.8890     0.4690     0.2750 ha         1 FFY       0.131000
     34 H3           4.5050    -3.9610     0.0020 ha         1 FFY       0.118000
     35 H4           5.4280     0.1860    -2.0030 ha         1 FFY       0.176000
     36 H5           3.2770     2.1780     0.7680 hc         1 FFY       0.060200
     37 H6           4.1690     1.1430     1.8510 hc         1 FFY       0.060200
     38 H7          -1.9370    -5.4170     0.6820 hc         1 FFY       0.079700
     39 H8          -4.1200    -5.7610    -0.4360 hc         1 FFY       0.075950
     40 H9          -4.1700    -4.0140    -0.9320 hc         1 FFY       0.075950
     41 H10          0.1260    -4.0120     0.3470 hn         1 FFY       0.499000
     42 H11         -2.0650    -1.8660     2.0170 hc         1 FFY       0.046700
     43 H12         -3.4290    -2.9620     1.7880 hc         1 FFY       0.046700
     44 H13         -1.9290    -3.5580     2.4990 hc         1 FFY       0.046700
     45 H14         -2.2590    -2.5530    -0.3730 h1         1 FFY       0.074700
     46 H15          5.5700    -1.7440    -0.1650 ha         1 FFY       0.119000
     47 H16          2.0910    -4.1590     0.1730 ha         1 FFY       0.103000
     48 H17          7.1120     1.9710    -1.2430 h1         1 FFY       0.055200
     49 H18          5.9320     2.6120    -2.3500 h1         1 FFY       0.055200
     50 H19          5.1610     3.4770     1.6150 h1         1 FFY       0.052200
     51 H20          6.2870     2.1740     1.2890 h1         1 FFY       0.052200
     52 H21         -2.0230    -4.3020    -2.2060 hc         1 FFY       0.075950
     53 H22         -1.9640    -6.0530    -1.7260 hc         1 FFY       0.075950
     54 H23         -1.3290     3.8330    -0.2400 ha         1 FFY       0.130000
     55 H24          0.2160     2.2230    -0.1910 hn         1 FFY       0.511000
     56 H25          4.8700     3.7290    -0.7230 hn         1 FFY       0.407000
@<TRIPOS>BOND
     1     1    24 ar  
     2     1    26 ar  
     3     2     8 ar  
     4     2    26 ar  
     5     3     4 ar  
     6     3    27 ar  
     7     3    29 1   
     8     4     5 ar  
     9     4    32 1   
    10     5     6 ar  
    11     5    33 1   
    12     6     7 ar  
    13     6    28 1   
    14     7    27 ar  
    15     7    31 1   
    16     8    10 ar  
    17     8    18 ar  
    18     9    19 ar  
    19     9    20 ar  
    20     9    34 1   
    21    10    20 ar  
    22    10    24 ar  
    23    11    21 2   
    24    11    22 1   
    25    11    35 1   
    26    12    21 1   
    27    12    23 1   
    28    12    36 1   
    29    12    37 1   
    30    13    14 1   
    31    13    17 1   
    32    13    25 1   
    33    13    38 1   
    34    14    25 1   
    35    14    39 1   
    36    14    40 1   
    37    15    17 1   
    38    15    24 1   
    39    15    41 1   
    40    16    17 1   
    41    16    42 1   
    42    16    43 1   
    43    16    44 1   
    44    17    45 1   
    45    18    19 ar  
    46    18    21 1   
    47    19    46 1   
    48    20    47 1   
    49    22    30 1   
    50    22    48 1   
    51    22    49 1   
    52    23    30 1   
    53    23    50 1   
    54    23    51 1   
    55    25    52 1   
    56    25    53 1   
    57    26    29 1   
    58    27    54 1   
    59    29    55 1   
    60    30    56 1   
@<TRIPOS>SUBSTRUCTURE
     1 FFY         1 TEMP              0 ****  ****    0 ROOT
