@<TRIPOS>MOLECULE
FFZ
   63    66     1     0     0
SMALL
abcg2


@<TRIPOS>ATOM
      1 C1           0.0860     6.0100     0.1210 c3         1 FFZ       0.144900
      2 C12         -6.2810    -1.0970     0.0230 ca         1 FFZ      -0.118300
      3 C13         -6.3800    -1.7850     1.2280 ca         1 FFZ      -0.093500
      4 C16         -6.4500    -3.1940    -1.1610 ca         1 FFZ      -0.113000
      5 C17         -6.3150    -1.8130    -1.1710 ca         1 FFZ      -0.093500
      6 C10         -4.2430     1.9820    -0.0330 c          1 FFZ       0.640300
      7 C11         -6.1000     0.3950     0.0100 c3         1 FFZ       0.155300
      8 C14         -6.5160    -3.1670     1.2420 ca         1 FFZ      -0.113000
      9 C15         -6.5490    -3.8740     0.0470 ca         1 FFZ      -0.100000
     10 C18          2.8400     0.1370    -0.1330 ce         1 FFZ       0.400900
     11 C2           0.3980     3.6660     0.0080 ca         1 FFZ       0.188100
     12 C20          1.5700    -3.1310     1.6960 c3         1 FFZ      -0.100100
     13 C21          1.1200    -3.6230    -0.7430 c3         1 FFZ      -0.100100
     14 C22          4.2460    -2.2480    -0.5200 c          1 FFZ       0.559000
     15 C23          4.8280    -0.9520    -1.0360 c6         1 FFZ      -0.141700
     16 C24          6.3460    -0.9730    -1.1240 c6         1 FFZ      -0.029200
     17 C25          6.9960    -0.7400     0.2040 c2         1 FFZ      -0.209200
     18 C26          6.3540    -0.2610     1.2650 c2         1 FFZ      -0.225200
     19 C27          4.9050     0.1170     1.2590 c6         1 FFZ      -0.038200
     20 C28          4.3370     0.2010    -0.1670 c6         1 FFZ      -0.128000
     21 C3           1.7840     3.7680     0.0090 ca         1 FFZ      -0.215000
     22 C4           2.5660     2.6240    -0.0470 ca         1 FFZ      -0.039000
     23 C5           2.0060     1.3490    -0.1010 ca         1 FFZ      -0.163900
     24 C6           0.6140     1.2540    -0.1010 ca         1 FFZ      -0.014000
     25 C7          -0.1890     2.3840    -0.0490 ca         1 FFZ      -0.037000
     26 C8          -1.6020     2.2530    -0.0480 cg         1 FFZ      -0.027000
     27 C9          -2.7990     2.1100    -0.0440 ch         1 FFZ      -0.176200
     28 N1          -4.6840     0.7170    -0.0110 ns         1 FFZ      -0.502900
     29 N2           2.2400    -0.9890    -0.0890 n2         1 FFZ      -0.450300
     30 N3           2.9630    -2.1410    -0.0640 n          1 FFZ      -0.179800
     31 O1          -0.4450     4.6960     0.0570 os         1 FFZ      -0.317100
     32 O2          -4.9740     2.9610    -0.0430 o          1 FFZ      -0.587100
     33 O3           4.8370    -3.3130    -0.5480 o          1 FFZ      -0.532000
     34 H1           0.7000     6.1520     1.0130 h1         1 FFZ       0.047033
     35 H2           0.6780     6.2490    -0.7640 h1         1 FFZ       0.047033
     36 H3          -0.7680     6.6810     0.1690 h1         1 FFZ       0.047033
     37 H4          -6.3560    -1.2360     2.1620 ha         1 FFZ       0.117000
     38 H5          -6.4800    -3.7410    -2.0940 ha         1 FFZ       0.115000
     39 H6          -6.2400    -1.2850    -2.1150 ha         1 FFZ       0.117000
     40 H7          -6.5890     0.8280    -0.8670 h1         1 FFZ       0.058700
     41 H8          -6.5680     0.8400     0.8910 h1         1 FFZ       0.058700
     42 H9          -6.5980    -3.6910     2.1850 ha         1 FFZ       0.115000
     43 H10         -6.6560    -4.9510     0.0560 ha         1 FFZ       0.114000
     44 H11          2.8790    -4.1450     0.3530 h1         1 FFZ       0.079700
     45 H12          0.8380    -2.3230     1.7090 hc         1 FFZ       0.042533
     46 H13          1.0650    -4.0470     2.0040 hc         1 FFZ       0.042533
     47 H14          2.3410    -2.9110     2.4360 hc         1 FFZ       0.042533
     48 H15          1.5720    -3.7510    -1.7270 hc         1 FFZ       0.042533
     49 H16          0.6030    -4.5500    -0.4920 hc         1 FFZ       0.042533
     50 H17          0.3760    -2.8290    -0.8050 hc         1 FFZ       0.042533
     51 H18          4.4160    -0.8210    -2.0460 hc         1 FFZ       0.078700
     52 H19          6.6880    -1.9190    -1.5480 hc         1 FFZ       0.063200
     53 H20          6.6700    -0.2020    -1.8310 hc         1 FFZ       0.063200
     54 H21          8.0520    -0.9760     0.2830 ha         1 FFZ       0.178000
     55 H22          6.8870    -0.1290     2.2000 ha         1 FFZ       0.177000
     56 H23          4.3400    -0.6010     1.8650 hc         1 FFZ       0.057700
     57 H24          4.7710     1.0790     1.7580 hc         1 FFZ       0.057700
     58 H25          4.6850     1.1280    -0.6250 hc         1 FFZ       0.071700
     59 H26          2.2750     4.7310     0.0520 ha         1 FFZ       0.124000
     60 H27          3.6390     2.7530    -0.0440 ha         1 FFZ       0.115000
     61 H28          0.1430     0.2810    -0.1420 ha         1 FFZ       0.140000
     62 H29         -4.0140    -0.0360     0.0030 hn         1 FFZ       0.326500
     63 C19          2.1740    -3.3170     0.3120 c3         1 FFZ       0.132700
@<TRIPOS>BOND
     1     1    31 1   
     2     1    34 1   
     3     1    35 1   
     4     1    36 1   
     5     2     3 ar  
     6     2     5 ar  
     7     2     7 1   
     8     3     8 ar  
     9     3    37 1   
    10     4     5 ar  
    11     4     9 ar  
    12     4    38 1   
    13     5    39 1   
    14     6    27 1   
    15     6    28 1   
    16     6    32 2   
    17     7    28 1   
    18     7    40 1   
    19     7    41 1   
    20     8     9 ar  
    21     8    42 1   
    22     9    43 1   
    23    10    20 1   
    24    10    23 1   
    25    10    29 2   
    26    11    21 ar  
    27    11    25 ar  
    28    11    31 1   
    29    12    45 1   
    30    12    46 1   
    31    12    47 1   
    32    12    63 1   
    33    13    48 1   
    34    13    49 1   
    35    13    50 1   
    36    13    63 1   
    37    14    15 1   
    38    14    30 1   
    39    14    33 2   
    40    15    16 1   
    41    15    20 1   
    42    15    51 1   
    43    16    17 1   
    44    16    52 1   
    45    16    53 1   
    46    17    18 2   
    47    17    54 1   
    48    18    19 1   
    49    18    55 1   
    50    19    20 1   
    51    19    56 1   
    52    19    57 1   
    53    20    58 1   
    54    21    22 ar  
    55    21    59 1   
    56    22    23 ar  
    57    22    60 1   
    58    23    24 ar  
    59    24    25 ar  
    60    24    61 1   
    61    25    26 1   
    62    26    27 3   
    63    28    62 1   
    64    29    30 1   
    65    30    63 1   
    66    44    63 1   
@<TRIPOS>SUBSTRUCTURE
     1 FFZ         1 TEMP              0 ****  ****    0 ROOT
