@<TRIPOS>MOLECULE
FFZ
   63    66     1     0     0
SMALL
No Charge or Current Charge


@<TRIPOS>ATOM
      1 C1           0.0620     6.1270     0.6840 c3         1 FFZ       0.144900
      2 C12         -6.3340    -1.0650    -0.0490 ca         1 FFZ      -0.118300
      3 C13         -6.5940    -1.4350     1.2860 ca         1 FFZ      -0.093500
      4 C16         -6.3820    -3.4180    -0.6940 ca         1 FFZ      -0.113000
      5 C17         -6.2270    -2.0630    -1.0370 ca         1 FFZ      -0.093500
      6 C10         -4.2930     2.0570    -0.5990 c          1 FFZ       0.640300
      7 C11         -6.1610     0.4000    -0.4180 c3         1 FFZ       0.155300
      8 C14         -6.7480    -2.7900     1.6270 ca         1 FFZ      -0.113000
      9 C15         -6.6430    -3.7820     0.6380 ca         1 FFZ      -0.100000
     10 C18          2.8080     0.1470    -0.2660 ce         1 FFZ       0.400900
     11 C2           0.3530     3.7150     0.2070 ca         1 FFZ       0.188100
     12 C20          1.4220    -3.1900     1.5340 c3         1 FFZ      -0.100100
     13 C21          1.4520    -4.1310    -0.8290 c3         1 FFZ      -0.100100
     14 C22          4.2610    -2.2860    -0.7580 c          1 FFZ       0.559000
     15 C23          4.9090    -0.9450    -1.1860 c6         1 FFZ      -0.141700
     16 C24          6.4660    -0.9280    -1.1930 c6         1 FFZ      -0.029200
     17 C25          7.0700    -0.7060     0.1840 c2         1 FFZ      -0.209200
     18 C26          6.3750    -0.2160     1.2220 c2         1 FFZ      -0.225200
     19 C27          4.9040     0.1610     1.1460 c6         1 FFZ      -0.038200
     20 C28          4.3460     0.2220    -0.3110 c6         1 FFZ      -0.128000
     21 C3           1.7520     3.7880     0.3730 ca         1 FFZ      -0.215000
     22 C4           2.5510     2.6430     0.2160 ca         1 FFZ      -0.039000
     23 C5           1.9750     1.3960    -0.1180 ca         1 FFZ      -0.163900
     24 C6           0.5700     1.3300    -0.2710 ca         1 FFZ      -0.014000
     25 C7          -0.2360     2.4740    -0.1150 ca         1 FFZ      -0.037000
     26 C8          -1.6580     2.3490    -0.2860 cg         1 FFZ      -0.027000
     27 C9          -2.8640     2.2250    -0.4320 ch         1 FFZ      -0.176200
     28 N1          -4.7620     0.8000    -0.3180 ns         1 FFZ      -0.502900
     29 N2           2.2220    -1.0140    -0.3190 n2         1 FFZ      -0.450300
     30 N3           2.9350    -2.2090    -0.2270 n          1 FFZ      -0.179800
     31 O1          -0.4590     4.8270     0.3560 os         1 FFZ      -0.317100
     32 O2          -5.0150     2.9740    -0.9630 o          1 FFZ      -0.587100
     33 O3           4.8240    -3.3580    -0.9530 o          1 FFZ      -0.532000
     34 H1           0.5800     6.1070     1.6510 h1         1 FFZ       0.047033
     35 H2           0.7640     6.4710    -0.0860 h1         1 FFZ       0.047033
     36 H3          -0.7540     6.8570     0.7510 h1         1 FFZ       0.047033
     37 H4          -6.6740    -0.6730     2.0580 ha         1 FFZ       0.117000
     38 H5          -6.2980    -4.1850    -1.4610 ha         1 FFZ       0.115000
     39 H6          -6.0220    -1.7900    -2.0700 ha         1 FFZ       0.117000
     40 H7          -6.5100     0.5700    -1.4450 h1         1 FFZ       0.058700
     41 H8          -6.7620     1.0290     0.2530 h1         1 FFZ       0.058700
     42 H9          -6.9490    -3.0710     2.6590 ha         1 FFZ       0.115000
     43 H10         -6.7620    -4.8300     0.9020 ha         1 FFZ       0.114000
     44 H11          3.0730    -4.1510     0.5820 h1         1 FFZ       0.079700
     45 H12          0.5660    -2.5450     1.3020 hc         1 FFZ       0.042533
     46 H13          1.0370    -4.1340     1.9370 hc         1 FFZ       0.042533
     47 H14          2.0190    -2.7050     2.3160 hc         1 FFZ       0.042533
     48 H15          2.0800    -4.3640    -1.6970 hc         1 FFZ       0.042533
     49 H16          1.0180    -5.0690    -0.4630 hc         1 FFZ       0.042533
     50 H17          0.6360    -3.4790    -1.1610 hc         1 FFZ       0.042533
     51 H18          4.5450    -0.7790    -2.2090 hc         1 FFZ       0.078700
     52 H19          6.8570    -1.8580    -1.6280 hc         1 FFZ       0.063200
     53 H20          6.8150    -0.1230    -1.8550 hc         1 FFZ       0.063200
     54 H21          8.1260    -0.9640     0.2940 ha         1 FFZ       0.178000
     55 H22          6.8590    -0.0720     2.1910 ha         1 FFZ       0.177000
     56 H23          4.3350    -0.5700     1.7380 hc         1 FFZ       0.057700
     57 H24          4.7520     1.1290     1.6430 hc         1 FFZ       0.057700
     58 H25          4.6620     1.1640    -0.7760 hc         1 FFZ       0.071700
     59 H26          2.2400     4.7240     0.6270 ha         1 FFZ       0.124000
     60 H27          3.6220     2.7480     0.3650 ha         1 FFZ       0.115000
     61 H28          0.0900     0.3850    -0.5190 ha         1 FFZ       0.140000
     62 H29         -4.0790     0.1140    -0.0240 hn         1 FFZ       0.326500
     63 C19          2.2860    -3.4480     0.2770 c3         1 FFZ       0.132700
@<TRIPOS>BOND
     1     1    31 1   
     2     1    34 1   
     3     1    35 1   
     4     1    36 1   
     5     2     3 ar  
     6     2     5 ar  
     7     2     7 1   
     8     3     8 ar  
     9     3    37 1   
    10     4     5 ar  
    11     4     9 ar  
    12     4    38 1   
    13     5    39 1   
    14     6    27 1   
    15     6    28 1   
    16     6    32 2   
    17     7    28 1   
    18     7    40 1   
    19     7    41 1   
    20     8     9 ar  
    21     8    42 1   
    22     9    43 1   
    23    10    20 1   
    24    10    23 1   
    25    10    29 2   
    26    11    21 ar  
    27    11    25 ar  
    28    11    31 1   
    29    12    45 1   
    30    12    46 1   
    31    12    47 1   
    32    12    63 1   
    33    13    48 1   
    34    13    49 1   
    35    13    50 1   
    36    13    63 1   
    37    14    15 1   
    38    14    30 1   
    39    14    33 2   
    40    15    16 1   
    41    15    20 1   
    42    15    51 1   
    43    16    17 1   
    44    16    52 1   
    45    16    53 1   
    46    17    18 2   
    47    17    54 1   
    48    18    19 1   
    49    18    55 1   
    50    19    20 1   
    51    19    56 1   
    52    19    57 1   
    53    20    58 1   
    54    21    22 ar  
    55    21    59 1   
    56    22    23 ar  
    57    22    60 1   
    58    23    24 ar  
    59    24    25 ar  
    60    24    61 1   
    61    25    26 1   
    62    26    27 3   
    63    28    62 1   
    64    29    30 1   
    65    30    63 1   
    66    44    63 1   
@<TRIPOS>SUBSTRUCTURE
     1 FFZ         1 TEMP              0 ****  ****    0 ROOT
