@<TRIPOS>MOLECULE
FG0
   48    52     1     0     0
SMALL
abcg2


@<TRIPOS>ATOM
      1 C10         35.7650     1.1070   -15.3680 ca         1 FG0       0.056100
      2 C13         38.1290     2.1210   -14.5490 c6         1 FG0       0.118600
      3 C15         34.4720     0.7120   -15.6760 ca         1 FG0      -0.111000
      4 C17         33.4730     4.6170   -20.2520 c6         1 FG0       0.170800
      5 C20         33.0970     3.8490   -24.0180 c6         1 FG0       0.163600
      6 C21         34.0660     3.7980   -25.1920 c6         1 FG0      -0.039100
      7 C22         35.3900     4.2600   -24.6860 cc         1 FG0      -0.196300
      8 C24         37.6650     5.1540   -24.3150 cc         1 FG0      -0.241000
      9 C01         35.7260     4.3050   -23.3670 cd         1 FG0      -0.136300
     10 C02         34.7650     3.8580   -22.2960 c6         1 FG0       0.250300
     11 C03         35.4090     2.8180   -21.3770 c6         1 FG0      -0.074900
     12 C04         34.5170     2.4640   -20.1980 c6         1 FG0       0.170800
     13 C07         34.2500     2.5390   -17.2390 ca         1 FG0      -0.085300
     14 C08         35.5430     2.9400   -16.9200 ca         1 FG0      -0.086000
     15 C09         36.3010     2.2390   -15.9940 ca         1 FG0       0.052100
     16 C12         37.8720     0.6350   -14.4930 c6         1 FG0       0.118600
     17 C16         33.7210     1.4230   -16.6020 ca         1 FG0      -0.109000
     18 C18         34.3200     5.0500   -21.4360 c6         1 FG0      -0.074900
     19 C25         37.0360     4.8290   -23.1550 cd         1 FG0      -0.114000
     20 N05         34.1800     3.6500   -19.4320 n3         1 FG0      -0.723600
     21 O11         36.4760     0.3800   -14.4720 os         1 FG0      -0.331100
     22 O14         37.5560     2.6750   -15.7230 os         1 FG0      -0.331100
     23 O19         33.6440     3.2140   -22.8840 os         1 FG0      -0.453000
     24 S23         36.6710     4.8370   -25.6800 ss         1 FG0       0.195000
     25 H1          39.1990     2.3210   -14.5880 h1         1 FG0       0.065700
     26 H2          34.0610    -0.1660   -15.1920 ha         1 FG0       0.126000
     27 H4          32.5050     4.2230   -20.6050 h1         1 FG0       0.037450
     28 H5          32.8340     4.8920   -23.8070 h1         1 FG0       0.046200
     29 H6          32.1740     3.3210   -24.2580 h1         1 FG0       0.046200
     30 H7          33.6970     4.4340   -25.9990 hc         1 FG0       0.060200
     31 H8          34.1320     2.7820   -25.5930 hc         1 FG0       0.060200
     32 H9          38.6550     5.5610   -24.4420 h4         1 FG0       0.151000
     33 H10         35.6510     1.9190   -21.9490 hc         1 FG0       0.055450
     34 H11         36.3520     3.2180   -20.9970 hc         1 FG0       0.055450
     35 H12         33.6130     1.9370   -20.5460 h1         1 FG0       0.037450
     36 H13         35.0540     1.7670   -19.5520 h1         1 FG0       0.037450
     37 H16         35.9790     3.8040   -17.4080 ha         1 FG0       0.141000
     38 H17         38.2920     0.2110   -13.5820 h1         1 FG0       0.065700
     39 H18         32.7170     1.0910   -16.8370 ha         1 FG0       0.115000
     40 H19         35.2100     5.5700   -21.0710 hc         1 FG0       0.055450
     41 H20         33.7660     5.7750   -22.0390 hc         1 FG0       0.055450
     42 H21         37.4920     4.9550   -22.1820 ha         1 FG0       0.137000
     43 H22         37.7190     2.6140   -13.6600 h1         1 FG0       0.065700
     44 H23         38.3330     0.1360   -15.3520 h1         1 FG0       0.065700
     45 C06         33.4370     3.3290   -18.2310 c3         1 FG0       0.220100
     46 H3          33.2450     5.4930   -19.6400 h1         1 FG0       0.037450
     47 H14         33.1300     4.2740   -17.7700 h1         1 FG0       0.037700
     48 H15         32.5040     2.7830   -18.4530 h1         1 FG0       0.037700
@<TRIPOS>BOND
     1     1     3 ar  
     2     1    15 ar  
     3     1    21 1   
     4     2    16 1   
     5     2    22 1   
     6     2    25 1   
     7     2    43 1   
     8     3    17 ar  
     9     3    26 1   
    10     4    18 1   
    11     4    20 1   
    12     4    27 1   
    13     4    46 1   
    14     5     6 1   
    15     5    23 1   
    16     5    28 1   
    17     5    29 1   
    18     6     7 1   
    19     6    30 1   
    20     6    31 1   
    21     7     9 2   
    22     7    24 1   
    23     8    19 2   
    24     8    24 1   
    25     8    32 1   
    26     9    10 1   
    27     9    19 1   
    28    10    11 1   
    29    10    18 1   
    30    10    23 1   
    31    11    12 1   
    32    11    33 1   
    33    11    34 1   
    34    12    20 1   
    35    12    35 1   
    36    12    36 1   
    37    13    14 ar  
    38    13    17 ar  
    39    13    45 1   
    40    14    15 ar  
    41    14    37 1   
    42    15    22 1   
    43    16    21 1   
    44    16    38 1   
    45    16    44 1   
    46    17    39 1   
    47    18    40 1   
    48    18    41 1   
    49    19    42 1   
    50    20    45 1   
    51    45    47 1   
    52    45    48 1   
@<TRIPOS>SUBSTRUCTURE
     1 FG0         1 TEMP              0 ****  ****    0 ROOT
