@<TRIPOS>MOLECULE
FG0
   48    52     1     0     0
SMALL
No Charge or Current Charge


@<TRIPOS>ATOM
      1 C10         35.8180     0.9860   -15.4020 ca         1 FG0       0.056100
      2 C13         37.9850     2.1020   -14.0480 c6         1 FG0       0.118600
      3 C15         34.6170     0.5020   -15.9440 ca         1 FG0      -0.111000
      4 C17         33.5580     4.7240   -20.2800 c6         1 FG0       0.170800
      5 C20         32.9280     3.8760   -24.0370 c6         1 FG0       0.163600
      6 C21         33.8670     3.8400   -25.2640 c6         1 FG0      -0.039100
      7 C22         35.2540     4.2530   -24.8470 cc         1 FG0      -0.196300
      8 C24         37.6150     5.0460   -24.5840 cc         1 FG0      -0.241000
      9 C01         35.6670     4.2660   -23.5360 cd         1 FG0      -0.136300
     10 C02         34.7550     3.8600   -22.3720 c6         1 FG0       0.250300
     11 C03         35.4650     2.8330   -21.4510 c6         1 FG0      -0.074900
     12 C04         34.6080     2.5040   -20.2060 c6         1 FG0       0.170800
     13 C07         34.3370     2.5820   -17.1980 ca         1 FG0      -0.085300
     14 C08         35.5380     3.0700   -16.6440 ca         1 FG0      -0.086000
     15 C09         36.2730     2.2850   -15.7410 ca         1 FG0       0.052100
     16 C12         37.9080     0.5750   -14.2640 c6         1 FG0       0.118600
     17 C16         33.8790     1.2970   -16.8400 ca         1 FG0      -0.109000
     18 C18         34.3900     5.1110   -21.5240 c6         1 FG0      -0.074900
     19 C25         37.0090     4.7280   -23.3940 cd         1 FG0      -0.114000
     20 N05         34.2750     3.7340   -19.4320 n3         1 FG0      -0.723600
     21 O11         36.5440     0.1860   -14.5410 os         1 FG0      -0.331100
     22 O14         37.4360     2.7900   -15.1940 os         1 FG0      -0.331100
     23 O19         33.5560     3.2250   -22.9060 os         1 FG0      -0.453000
     24 S23         36.5260     4.7830   -25.9410 ss         1 FG0       0.195000
     25 H1          39.0260     2.4210   -13.8950 h1         1 FG0       0.065700
     26 H2          34.2640    -0.4920   -15.6780 ha         1 FG0       0.126000
     27 H4          32.5870     4.3190   -20.6040 h1         1 FG0       0.037450
     28 H5          32.6830     4.9140   -23.7770 h1         1 FG0       0.046200
     29 H6          31.9880     3.3580   -24.2720 h1         1 FG0       0.046200
     30 H7          33.4740     4.4980   -26.0500 hc         1 FG0       0.060200
     31 H8          33.8800     2.8240   -25.6830 hc         1 FG0       0.060200
     32 H9          38.6150     5.4170   -24.7660 h4         1 FG0       0.151000
     33 H10         35.6760     1.9130   -22.0110 hc         1 FG0       0.055450
     34 H11         36.4330     3.2230   -21.1150 hc         1 FG0       0.055450
     35 H12         33.6870     1.9910   -20.5230 h1         1 FG0       0.037450
     36 H13         35.1710     1.7940   -19.5820 h1         1 FG0       0.037450
     37 H16         35.8970     4.0600   -16.9130 ha         1 FG0       0.141000
     38 H17         38.2660     0.0380   -13.3750 h1         1 FG0       0.065700
     39 H18         32.9530     0.9100   -17.2610 ha         1 FG0       0.115000
     40 H19         35.3080     5.6130   -21.1930 hc         1 FG0       0.055450
     41 H20         33.8450     5.8480   -22.1260 hc         1 FG0       0.055450
     42 H21         37.5120     4.8290   -22.4370 ha         1 FG0       0.137000
     43 H22         37.4050     2.3760   -13.1560 h1         1 FG0       0.065700
     44 H23         38.5400     0.2930   -15.1170 h1         1 FG0       0.065700
     45 C06         33.5430     3.4430   -18.1760 c3         1 FG0       0.220100
     46 H3          33.3490     5.6370   -19.7030 h1         1 FG0       0.037450
     47 H14         33.2950     4.3840   -17.6670 h1         1 FG0       0.037700
     48 H15         32.5890     2.9470   -18.4060 h1         1 FG0       0.037700
@<TRIPOS>BOND
     1     1     3 ar  
     2     1    15 ar  
     3     1    21 1   
     4     2    16 1   
     5     2    22 1   
     6     2    25 1   
     7     2    43 1   
     8     3    17 ar  
     9     3    26 1   
    10     4    18 1   
    11     4    20 1   
    12     4    27 1   
    13     4    46 1   
    14     5     6 1   
    15     5    23 1   
    16     5    28 1   
    17     5    29 1   
    18     6     7 1   
    19     6    30 1   
    20     6    31 1   
    21     7     9 2   
    22     7    24 1   
    23     8    19 2   
    24     8    24 1   
    25     8    32 1   
    26     9    10 1   
    27     9    19 1   
    28    10    11 1   
    29    10    18 1   
    30    10    23 1   
    31    11    12 1   
    32    11    33 1   
    33    11    34 1   
    34    12    20 1   
    35    12    35 1   
    36    12    36 1   
    37    13    14 ar  
    38    13    17 ar  
    39    13    45 1   
    40    14    15 ar  
    41    14    37 1   
    42    15    22 1   
    43    16    21 1   
    44    16    38 1   
    45    16    44 1   
    46    17    39 1   
    47    18    40 1   
    48    18    41 1   
    49    19    42 1   
    50    20    45 1   
    51    45    47 1   
    52    45    48 1   
@<TRIPOS>SUBSTRUCTURE
     1 FG0         1 TEMP              0 ****  ****    0 ROOT
