@<TRIPOS>MOLECULE
FG1
   52    52     1     0     0
SMALL
No Charge or Current Charge


@<TRIPOS>ATOM
      1 O30          0.6560    -0.8560    10.0670 o          1 FG1      -0.681000
      2 C27          1.1140    -1.3130     9.0200 c          1 FG1       0.670000
      3 O28          1.7490    -2.3650     8.9730 o          1 FG1      -0.681000
      4 C26          0.8730    -0.4940     7.6370 c          1 FG1       0.459100
      5 O29          0.2210     0.5570     7.5640 o          1 FG1      -0.655100
      6 N25          1.4650    -1.1150     6.5390 ns         1 FG1      -0.141000
      7 C22          1.5480    -0.7380     5.1730 ca         1 FG1       0.016000
      8 C23          1.3250     0.5820     4.7350 ca         1 FG1      -0.173500
      9 C24          1.3890     0.9020     3.3710 ca         1 FG1      -0.083500
     10 C19          1.6770    -0.0920     2.4200 ca         1 FG1      -0.157300
     11 C20          1.9370    -1.4050     2.8530 ca         1 FG1      -0.083500
     12 C21          1.8770    -1.7220     4.2220 ca         1 FG1      -0.173500
     13 C18          1.6230     0.2480     0.9300 c3         1 FG1      -0.045100
     14 C17          0.4370    -0.4250     0.1910 c3         1 FG1       0.103000
     15 N16         -0.7320    -0.6470     1.0520 ns         1 FG1      -0.478900
     16 C12         -1.4430     0.3440     1.7000 c          1 FG1       0.602100
     17 O13         -1.3030     1.5340     1.4370 o          1 FG1      -0.609100
     18 C11         -2.3980    -0.1750     2.8060 c3         1 FG1      -0.017300
     19 N10         -2.8290     0.9220     3.7180 ns         1 FG1      -0.508900
     20 C8          -3.4230     0.7290     4.9470 c          1 FG1       0.598100
     21 O9          -3.6410    -0.3870     5.3920 o          1 FG1      -0.592100
     22 C7          -3.8570     1.9940     5.6830 c3         1 FG1      -0.180400
     23 C6          -3.1220     2.1770     7.0260 c3         1 FG1       0.120000
     24 N5          -1.7100     2.5390     6.8810 ns         1 FG1      -0.497900
     25 C3          -1.2570     3.8110     6.6060 c          1 FG1       0.601100
     26 O4          -2.0270     4.7340     6.3710 o          1 FG1      -0.624100
     27 C2           0.2640     4.0040     6.6240 c3         1 FG1      -0.010400
     28 Br1          1.0260     4.4950     4.8380 br         1 FG1      -0.247000
     29 C14         -3.6000    -0.9430     2.1960 c3         1 FG1       0.151600
     30 O15         -4.4670    -0.0440     1.4890 oh         1 FG1      -0.656000
     31 H25          1.9230    -1.9910     6.7580 hn         1 FG1       0.186000
     32 H23          1.1010     1.3730     5.4390 ha         1 FG1       0.125000
     33 H24          1.1860     1.9210     3.0520 ha         1 FG1       0.104000
     34 H20          2.1600    -2.1850     2.1280 ha         1 FG1       0.104000
     35 H21          2.0640    -2.7450     4.5410 ha         1 FG1       0.125000
     36 H181         2.5600    -0.0340     0.4350 hc         1 FG1       0.051700
     37 H182         1.5320     1.3340     0.8000 hc         1 FG1       0.051700
     38 H171         0.1440     0.1790    -0.6780 h1         1 FG1       0.045700
     39 H172         0.7650    -1.4060    -0.1770 h1         1 FG1       0.045700
     40 H16         -0.9190    -1.5980     1.3430 hn         1 FG1       0.310500
     41 H11         -1.8100    -0.8890     3.3990 h1         1 FG1       0.099700
     42 H10         -2.6600     1.8810     3.4310 hn         1 FG1       0.337500
     43 H71         -3.7050     2.8800     5.0550 hc         1 FG1       0.065200
     44 H72         -4.9270     1.8980     5.9030 hc         1 FG1       0.065200
     45 H61         -3.1900     1.2510     7.6130 h1         1 FG1       0.060700
     46 H62         -3.6240     2.9660     7.6030 h1         1 FG1       0.060700
     47 HN5         -1.0040     1.8300     7.0910 hn         1 FG1       0.376500
     48 H21A         0.7610     3.0880     6.9590 h1         1 FG1       0.103700
     49 H22          0.5040     4.8170     7.3190 h1         1 FG1       0.103700
     50 H141        -4.1520    -1.4450     3.0020 h1         1 FG1       0.053200
     51 H142        -3.2320    -1.7290     1.5220 h1         1 FG1       0.053200
     52 H15         -4.7060     0.6690     2.1210 ho         1 FG1       0.445000
@<TRIPOS>BOND
     1     1     2 1   
     2     2     3 1   
     3     2     4 1   
     4     4     5 2   
     5     4     6 1   
     6     6     7 1   
     7     6    31 1   
     8     7     8 ar  
     9     7    12 ar  
    10     8     9 ar  
    11     8    32 1   
    12     9    10 ar  
    13     9    33 1   
    14    10    11 ar  
    15    10    13 1   
    16    11    12 ar  
    17    11    34 1   
    18    12    35 1   
    19    13    14 1   
    20    13    36 1   
    21    13    37 1   
    22    14    15 1   
    23    14    38 1   
    24    14    39 1   
    25    15    16 1   
    26    15    40 1   
    27    16    17 2   
    28    16    18 1   
    29    18    19 1   
    30    18    29 1   
    31    18    41 1   
    32    19    20 1   
    33    19    42 1   
    34    20    21 2   
    35    20    22 1   
    36    22    23 1   
    37    22    43 1   
    38    22    44 1   
    39    23    24 1   
    40    23    45 1   
    41    23    46 1   
    42    24    25 1   
    43    24    47 1   
    44    25    26 2   
    45    25    27 1   
    46    27    28 1   
    47    27    48 1   
    48    27    49 1   
    49    29    30 1   
    50    29    50 1   
    51    29    51 1   
    52    30    52 1   
@<TRIPOS>SUBSTRUCTURE
     1 FG1         1 TEMP              0 ****  ****    0 ROOT
