@<TRIPOS>MOLECULE
FG1
   52    52     1     0     0
SMALL
abcg2


@<TRIPOS>ATOM
      1 O30          0.6950    -1.1730     9.9100 o          1 FG1      -0.681000
      2 C27          1.1820    -1.5860     8.8540 c          1 FG1       0.670000
      3 O28          1.8610    -2.6080     8.6440 o          1 FG1      -0.681000
      4 C26          0.9070    -0.6920     7.6040 c          1 FG1       0.459100
      5 O29          0.2400     0.3290     7.6720 o          1 FG1      -0.655100
      6 N25          1.4870    -1.1800     6.4900 ns         1 FG1      -0.141000
      7 C22          1.4850    -0.7010     5.1800 ca         1 FG1       0.016000
      8 C23          0.8610     0.4780     4.7770 ca         1 FG1      -0.173500
      9 C24          0.9010     0.8590     3.4450 ca         1 FG1      -0.083500
     10 C19          1.5330     0.0920     2.4730 ca         1 FG1      -0.157300
     11 C20          2.1740    -1.0730     2.8910 ca         1 FG1      -0.083500
     12 C21          2.1570    -1.4620     4.2190 ca         1 FG1      -0.173500
     13 C18          1.4030     0.4410     1.0190 c3         1 FG1      -0.045100
     14 C17          0.3510    -0.4500     0.3240 c3         1 FG1       0.103000
     15 N16         -0.7870    -0.7470     1.1690 ns         1 FG1      -0.478900
     16 C12         -1.6000     0.2060     1.6480 c          1 FG1       0.602100
     17 O13         -1.6550     1.3370     1.1920 o          1 FG1      -0.609100
     18 C11         -2.4650    -0.2410     2.8240 c3         1 FG1      -0.017300
     19 N10         -2.9380     0.9320     3.5130 ns         1 FG1      -0.508900
     20 C8          -3.1670     0.9570     4.8390 c          1 FG1       0.598100
     21 O9          -3.0500    -0.0290     5.5510 o          1 FG1      -0.592100
     22 C7          -3.6230     2.2930     5.3850 c3         1 FG1      -0.180400
     23 C6          -3.1370     2.5390     6.8060 c3         1 FG1       0.120000
     24 N5          -1.6970     2.6410     6.9170 ns         1 FG1      -0.497900
     25 C3          -1.0350     3.7640     6.6140 c          1 FG1       0.601100
     26 O4          -1.5640     4.7680     6.1660 o          1 FG1      -0.624100
     27 C2           0.4490     3.7210     6.9280 c3         1 FG1      -0.010400
     28 BR1          1.4740     4.3140     5.3800 br         1 FG1      -0.247000
     29 C14         -3.6160    -1.1370     2.3540 c3         1 FG1       0.151600
     30 O15         -4.4240    -0.5110     1.3930 oh         1 FG1      -0.656000
     31 H25          1.9870    -2.0430     6.6620 hn         1 FG1       0.186000
     32 H23          0.3280     1.0910     5.4820 ha         1 FG1       0.125000
     33 H24          0.4090     1.7810     3.1580 ha         1 FG1       0.104000
     34 H20          2.6870    -1.6970     2.1690 ha         1 FG1       0.104000
     35 H21          2.6590    -2.3760     4.5140 ha         1 FG1       0.125000
     36 H181         2.3500     0.3170     0.4910 hc         1 FG1       0.051700
     37 H182         1.1190     1.4890     0.9160 hc         1 FG1       0.051700
     38 H171         0.0240     0.0190    -0.6050 h1         1 FG1       0.045700
     39 H172         0.7950    -1.4080     0.0590 h1         1 FG1       0.045700
     40 H16         -0.7350    -1.6090     1.6880 hn         1 FG1       0.310500
     41 H11         -1.8430    -0.8240     3.5100 h1         1 FG1       0.099700
     42 H10         -2.9590     1.7950     2.9900 hn         1 FG1       0.337500
     43 H71         -3.3240     3.1130     4.7310 hc         1 FG1       0.065200
     44 H72         -4.7170     2.2890     5.3920 hc         1 FG1       0.065200
     45 H61         -3.4580     1.7290     7.4570 h1         1 FG1       0.060700
     46 H62         -3.5940     3.4540     7.1830 h1         1 FG1       0.060700
     47 HN5         -1.1860     1.8330     7.2460 hn         1 FG1       0.376500
     48 H21A         0.8090     2.7340     7.2090 h1         1 FG1       0.103700
     49 H22          0.6610     4.4150     7.7420 h1         1 FG1       0.103700
     50 H141        -4.1870    -1.4510     3.2350 h1         1 FG1       0.053200
     51 H142        -3.2110    -2.0420     1.8980 h1         1 FG1       0.053200
     52 H15         -4.8760     0.2280     1.8130 ho         1 FG1       0.445000
@<TRIPOS>BOND
     1     1     2 1   
     2     2     3 1   
     3     2     4 1   
     4     4     5 2   
     5     4     6 1   
     6     6     7 1   
     7     6    31 1   
     8     7     8 ar  
     9     7    12 ar  
    10     8     9 ar  
    11     8    32 1   
    12     9    10 ar  
    13     9    33 1   
    14    10    11 ar  
    15    10    13 1   
    16    11    12 ar  
    17    11    34 1   
    18    12    35 1   
    19    13    14 1   
    20    13    36 1   
    21    13    37 1   
    22    14    15 1   
    23    14    38 1   
    24    14    39 1   
    25    15    16 1   
    26    15    40 1   
    27    16    17 2   
    28    16    18 1   
    29    18    19 1   
    30    18    29 1   
    31    18    41 1   
    32    19    20 1   
    33    19    42 1   
    34    20    21 2   
    35    20    22 1   
    36    22    23 1   
    37    22    43 1   
    38    22    44 1   
    39    23    24 1   
    40    23    45 1   
    41    23    46 1   
    42    24    25 1   
    43    24    47 1   
    44    25    26 2   
    45    25    27 1   
    46    27    28 1   
    47    27    48 1   
    48    27    49 1   
    49    29    30 1   
    50    29    50 1   
    51    29    51 1   
    52    30    52 1   
@<TRIPOS>SUBSTRUCTURE
     1 FG1         1 TEMP              0 ****  ****    0 ROOT
