@<TRIPOS>MOLECULE
FG2
   39    41     1     0     0
SMALL
No Charge or Current Charge


@<TRIPOS>ATOM
      1 CAA          7.9540    -0.9920     0.0550 c3         1 FG2       0.150900
      2 OAC         -1.0040     0.1390    -1.5070 o          1 FG2      -0.545100
      3 OAD         -2.9300     2.3900     1.7180 o          1 FG2      -0.516000
      4 OAE         -3.0030     2.4740    -0.8360 o          1 FG2      -0.516000
      5 CAF         -4.7980    -1.5850    -0.8880 ca         1 FG2      -0.095000
      6 CAG         -4.1430    -0.3420    -0.8480 ca         1 FG2      -0.041000
      7 CAH          5.4640     0.2160     0.9610 ca         1 FG2      -0.148000
      8 CAI          4.2360     0.7850     1.3670 ca         1 FG2      -0.098000
      9 CAJ         -4.3170    -1.8200     1.4720 ca         1 FG2       0.319900
     10 CAK          4.3680    -0.8120    -0.9750 ca         1 FG2      -0.093000
     11 CAL          1.8560    -0.2870    -1.0990 cc         1 FG2      -0.149200
     12 NAM         -3.6830    -0.6240     1.5220 nb         1 FG2      -0.602000
     13 NAN         -1.0850     1.3950     0.3750 ns         1 FG2      -0.580300
     14 NAO          1.8070     0.9920     0.7960 na         1 FG2      -0.209700
     15 OAP          6.7100    -1.1620    -0.6490 os         1 FG2      -0.345100
     16 CAQ         -0.4370     0.6370    -0.5460 c          1 FG2       0.665300
     17 CAR         -4.8900    -2.3410     0.2940 ca         1 FG2      -0.069300
     18 CAS          5.5330    -0.5850    -0.2130 ca         1 FG2       0.107100
     19 CAT         -3.5960     0.1190     0.3720 ca         1 FG2       0.130900
     20 CAU          1.0220     0.4660    -0.2730 cd         1 FG2      -0.154300
     21 CAV          3.1700    -0.2320    -0.5400 ca         1 FG2      -0.086800
     22 CAW          3.1000     0.5370     0.5850 ca         1 FG2      -0.058200
     23 SAX         -2.7250     1.7480     0.4120 sy         1 FG2       1.112900
     24 HAA          8.2330     0.0680     0.1040 h1         1 FG2       0.038700
     25 HAAA         7.8810    -1.3870     1.0770 h1         1 FG2       0.038700
     26 HAAB         8.7580    -1.5320    -0.4610 h1         1 FG2       0.038700
     27 HAB         -4.9320    -4.4710    -0.1160 hc         1 FG2       0.052367
     28 HABA        -5.8740    -3.9990     1.3080 hc         1 FG2       0.052367
     29 HABB        -6.5000    -3.6690    -0.3130 hc         1 FG2       0.052367
     30 HAF         -5.2210    -1.9540    -1.8200 ha         1 FG2       0.126000
     31 HAG         -4.0560     0.2530    -1.7540 ha         1 FG2       0.157000
     32 HAH          6.3470     0.4060     1.5650 ha         1 FG2       0.118000
     33 HAI          4.1760     1.3980     2.2630 ha         1 FG2       0.118000
     34 HAJ         -4.3640    -2.3770     2.4070 h4         1 FG2       0.026100
     35 HAK          4.4020    -1.4220    -1.8740 ha         1 FG2       0.134000
     36 HAL          1.5480    -0.8140    -2.0000 ha         1 FG2       0.222000
     37 HNAN        -0.6030     1.7490     1.1800 hn         1 FG2       0.349500
     38 HNAO         1.5000     1.5850     1.5610 hn         1 FG2       0.353000
     39 CAB         -5.5870    -3.6940     0.2950 c3         1 FG2      -0.054800
@<TRIPOS>BOND
     1     1    15 1   
     2     1    24 1   
     3     1    25 1   
     4     1    26 1   
     5     2    16 2   
     6     3    23 2   
     7     4    23 2   
     8     5     6 ar  
     9     5    17 ar  
    10     5    30 1   
    11     6    19 ar  
    12     6    31 1   
    13     7     8 ar  
    14     7    18 ar  
    15     7    32 1   
    16     8    22 ar  
    17     8    33 1   
    18     9    12 ar  
    19     9    17 ar  
    20     9    34 1   
    21    10    18 ar  
    22    10    21 ar  
    23    10    35 1   
    24    11    20 2   
    25    11    21 1   
    26    11    36 1   
    27    12    19 ar  
    28    13    16 1   
    29    13    23 1   
    30    13    37 1   
    31    14    20 1   
    32    14    22 1   
    33    14    38 1   
    34    15    18 1   
    35    16    20 1   
    36    17    39 1   
    37    19    23 1   
    38    21    22 ar  
    39    27    39 1   
    40    28    39 1   
    41    29    39 1   
@<TRIPOS>SUBSTRUCTURE
     1 FG2         1 TEMP              0 ****  ****    0 ROOT
