@<TRIPOS>MOLECULE
FG2
   39    41     1     0     0
SMALL
abcg2


@<TRIPOS>ATOM
      1 CAA          7.7540    -1.0390     0.1840 c3         1 FG2       0.150900
      2 OAC         -1.0350     0.3390    -1.4970 o          1 FG2      -0.545100
      3 OAD         -2.9820     2.2190     1.8210 o          1 FG2      -0.516000
      4 OAE         -2.9610     2.4890    -0.6780 o          1 FG2      -0.516000
      5 CAF         -4.8670    -1.4180    -0.8450 ca         1 FG2      -0.095000
      6 CAG         -4.2460    -0.1770    -0.8120 ca         1 FG2      -0.041000
      7 CAH          5.3850     0.3060     0.8680 ca         1 FG2      -0.148000
      8 CAI          4.2100     0.9470     1.2020 ca         1 FG2      -0.098000
      9 CAJ         -3.9470    -1.8680     1.3010 ca         1 FG2       0.319900
     10 CAK          4.2820    -0.9970    -0.8590 ca         1 FG2      -0.093000
     11 CAL          1.7610    -0.4320    -1.0510 cc         1 FG2      -0.149200
     12 NAM         -3.3560    -0.6860     1.3520 nb         1 FG2      -0.602000
     13 NAN         -1.0740     1.2970     0.5530 ns         1 FG2      -0.580300
     14 NAO          1.7770     1.0640     0.6220 na         1 FG2      -0.209700
     15 OAP          6.5570    -1.3200    -0.5100 os         1 FG2      -0.345100
     16 CAQ         -0.4350     0.6770    -0.5000 c          1 FG2       0.665300
     17 CAR         -4.7220    -2.2970     0.2200 ca         1 FG2      -0.069300
     18 CAS          5.4260    -0.6660    -0.1570 ca         1 FG2       0.107100
     19 CAT         -3.5130     0.1150     0.3190 ca         1 FG2       0.130900
     20 CAU          0.9990     0.4470    -0.3250 cd         1 FG2      -0.154300
     21 CAV          3.0830    -0.3510    -0.5360 ca         1 FG2      -0.086800
     22 CAW          3.0570     0.6080     0.4990 ca         1 FG2      -0.058200
     23 SAX         -2.7040     1.6910     0.5010 sy         1 FG2       1.112900
     24 HAA          8.0710    -0.0010     0.0570 h1         1 FG2       0.038700
     25 HAAA         7.6710    -1.2520     1.2530 h1         1 FG2       0.038700
     26 HAAB         8.5170    -1.6880    -0.2410 h1         1 FG2       0.038700
     27 HAB         -4.6700    -4.3810    -0.2470 hc         1 FG2       0.052367
     28 HABA        -5.5560    -4.0040     1.2250 hc         1 FG2       0.052367
     29 HABB        -6.2730    -3.6650    -0.3550 hc         1 FG2       0.052367
     30 HAF         -5.4620    -1.6970    -1.7060 ha         1 FG2       0.126000
     31 HAG         -4.3380     0.5200    -1.6310 ha         1 FG2       0.157000
     32 HAH          6.2800     0.5650     1.4160 ha         1 FG2       0.118000
     33 HAI          4.1960     1.6860     1.9920 ha         1 FG2       0.118000
     34 HAJ         -3.8080    -2.5150     2.1600 h4         1 FG2       0.026100
     35 HAK          4.3190    -1.7400    -1.6450 ha         1 FG2       0.134000
     36 HAL          1.4030    -1.0740    -1.8390 ha         1 FG2       0.222000
     37 HNAN        -0.6470     1.3530     1.4700 hn         1 FG2       0.349500
     38 HNAO         1.5100     1.8580     1.1820 hn         1 FG2       0.353000
     39 CAB         -5.3440    -3.6570     0.2150 c3         1 FG2      -0.054800
@<TRIPOS>BOND
     1     1    15 1   
     2     1    24 1   
     3     1    25 1   
     4     1    26 1   
     5     2    16 2   
     6     3    23 2   
     7     4    23 2   
     8     5     6 ar  
     9     5    17 ar  
    10     5    30 1   
    11     6    19 ar  
    12     6    31 1   
    13     7     8 ar  
    14     7    18 ar  
    15     7    32 1   
    16     8    22 ar  
    17     8    33 1   
    18     9    12 ar  
    19     9    17 ar  
    20     9    34 1   
    21    10    18 ar  
    22    10    21 ar  
    23    10    35 1   
    24    11    20 2   
    25    11    21 1   
    26    11    36 1   
    27    12    19 ar  
    28    13    16 1   
    29    13    23 1   
    30    13    37 1   
    31    14    20 1   
    32    14    22 1   
    33    14    38 1   
    34    15    18 1   
    35    16    20 1   
    36    17    39 1   
    37    19    23 1   
    38    21    22 ar  
    39    27    39 1   
    40    28    39 1   
    41    29    39 1   
@<TRIPOS>SUBSTRUCTURE
     1 FG2         1 TEMP              0 ****  ****    0 ROOT
