@<TRIPOS>MOLECULE
FG3
   44    46     1     0     0
SMALL
bcc


@<TRIPOS>ATOM
      1 C           -1.3090     3.2730    -0.1060 c          1 FG3       0.930600
      2 N           -1.8080     0.9170     0.6000 na         1 FG3       0.042600
      3 OXT         -1.2500     4.4630     0.2510 o          1 FG3      -0.811800
      4 CA          -1.7180     2.2950     1.0230 c3         1 FG3      -0.132700
      5 CAA         -7.1960    -2.4730     0.4840 c3         1 FG3       0.135700
      6 OAD          1.1030     1.3910     0.6590 o          1 FG3      -0.562100
      7 OAE          3.0950    -0.2090    -2.7900 o          1 FG3      -0.595300
      8 OAF          3.1210     1.9690    -1.5490 o          1 FG3      -0.595300
      9 CAH          4.9240    -0.2010     1.7470 ca         1 FG3      -0.116000
     10 CAI          4.3350     0.5020     0.7060 ca         1 FG3      -0.125300
     11 CAJ         -5.2140    -0.5220     0.8800 ca         1 FG3      -0.206000
     12 CAK         -4.2270     0.4280     1.0600 ca         1 FG3      -0.087000
     13 CAL          3.9380    -2.1840     0.8820 ca         1 FG3       0.381200
     14 CAM         -3.6870    -1.9940    -0.2940 ca         1 FG3      -0.128000
     15 CAN         -1.3200    -0.9740    -0.5240 cc         1 FG3      -0.210200
     16 NAP          3.3770    -1.5300    -0.1210 nb         1 FG3      -0.594000
     17 NAQ          1.1870     0.2960    -1.3170 ns         1 FG3      -0.627300
     18 CAU          4.7350    -1.5730     1.8530 ca         1 FG3      -0.152600
     19 CAV         -4.9500    -1.7330     0.2070 ca         1 FG3       0.087100
     20 CAW          3.5840    -0.2310    -0.1890 ca         1 FG3       0.208200
     21 CAX         -0.8370     0.2290    -0.0730 cd         1 FG3      -0.072300
     22 CAY         -2.6820    -1.0360    -0.1270 ca         1 FG3      -0.070800
     23 CAZ         -2.9550     0.1690     0.5570 ca         1 FG3      -0.071200
     24 SBB          2.8150     0.5550    -1.5890 sy         1 FG3       1.261500
     25 O           -1.0880     2.7960    -1.2300 o          1 FG3      -0.811800
     26 HA          -1.0210     2.3910     1.8550 h1         1 FG3       0.052700
     27 HAA         -2.6950     2.5930     1.4030 h1         1 FG3       0.052700
     28 HAAA        -7.6590    -1.5920     0.0290 h1         1 FG3       0.028033
     29 HAAB        -7.7760    -3.3500     0.2080 h1         1 FG3       0.028033
     30 HAAC        -7.2290    -2.3620     1.5720 h1         1 FG3       0.028033
     31 HAB          6.3800    -2.6740     2.6560 hc         1 FG3       0.044367
     32 HABA         5.4500    -1.8010     3.8650 hc         1 FG3       0.044367
     33 HABB         4.8080    -3.2840     3.1530 hc         1 FG3       0.044367
     34 HAH          5.5240     0.3260     2.4790 ha         1 FG3       0.135000
     35 HAI          4.4600     1.5700     0.6090 ha         1 FG3       0.177000
     36 HAJ         -6.1990    -0.3130     1.2740 ha         1 FG3       0.118000
     37 HAK         -4.4620     1.3430     1.5880 ha         1 FG3       0.134000
     38 HAL          3.7480    -3.2510     0.9280 h4         1 FG3       0.017100
     39 HAM         -3.4870    -2.9230    -0.8140 ha         1 FG3       0.133000
     40 HAN         -0.7610    -1.7370    -1.0440 ha         1 FG3       0.143000
     41 HNAQ         0.6920    -0.2130    -2.0390 hn         1 FG3       0.361500
     42 OAR         -5.8860    -2.6920     0.0090 os         1 FG3      -0.333900
     43 CAT          0.5400     0.7280    -0.1840 c          1 FG3       0.764300
     44 CAB          5.3700    -2.3750     2.9430 c3         1 FG3      -0.047800
@<TRIPOS>BOND
     1     1     3 1   
     2     1     4 1   
     3     1    25 1   
     4     2     4 1   
     5     2    21 1   
     6     2    23 1   
     7     4    26 1   
     8     4    27 1   
     9     5    28 1   
    10     5    29 1   
    11     5    30 1   
    12     5    42 1   
    13     6    43 2   
    14     7    24 2   
    15     8    24 2   
    16     9    10 ar  
    17     9    18 ar  
    18     9    34 1   
    19    10    20 ar  
    20    10    35 1   
    21    11    12 ar  
    22    11    19 ar  
    23    11    36 1   
    24    12    23 ar  
    25    12    37 1   
    26    13    16 ar  
    27    13    18 ar  
    28    13    38 1   
    29    14    19 ar  
    30    14    22 ar  
    31    14    39 1   
    32    15    21 2   
    33    15    22 1   
    34    15    40 1   
    35    16    20 ar  
    36    17    24 1   
    37    17    41 1   
    38    17    43 1   
    39    18    44 1   
    40    19    42 1   
    41    20    24 1   
    42    21    43 1   
    43    22    23 ar  
    44    31    44 1   
    45    32    44 1   
    46    33    44 1   
@<TRIPOS>SUBSTRUCTURE
     1 FG3         1 TEMP              0 ****  ****    0 ROOT
