@<TRIPOS>MOLECULE
FG3
   44    46     1     0     0
SMALL
No Charge or Current Charge


@<TRIPOS>ATOM
      1 C           -1.9460     3.0940     1.1750 c          1 FG3       0.720000
      2 N           -1.7310     0.6480     0.6560 na         1 FG3       0.013300
      3 OXT         -1.3890     3.5960     0.2090 o          1 FG3      -0.706500
      4 CA          -1.4800     1.7100     1.6500 c3         1 FG3      -0.103400
      5 CAA         -7.6470    -1.9760    -0.0570 c3         1 FG3       0.158900
      6 OAD          1.2500     1.1500     0.1920 o          1 FG3      -0.562100
      7 OAE          2.9770    -1.5650    -2.7520 o          1 FG3      -0.524500
      8 OAF          3.1060     0.9540    -2.3420 o          1 FG3      -0.524500
      9 CAH          5.1020     0.1790     1.5470 ca         1 FG3      -0.098000
     10 CAI          4.3930     0.3940     0.3530 ca         1 FG3      -0.042000
     11 CAJ         -5.3320    -0.4180     0.7680 ca         1 FG3      -0.188000
     12 CAK         -4.1850     0.3180     1.1390 ca         1 FG3      -0.069000
     13 CAL          4.5350    -2.1670     1.3630 ca         1 FG3       0.315900
     14 CAM         -4.0290    -1.6290    -0.9150 ca         1 FG3      -0.110000
     15 CAN         -1.5700    -0.9100    -1.0020 cc         1 FG3      -0.260200
     16 NAP          3.8490    -1.9700     0.2130 nb         1 FG3      -0.594000
     17 NAQ          1.2130    -0.4180    -1.4270 ns         1 FG3      -0.560300
     18 CAU          5.1760    -1.1260     2.0660 ca         1 FG3      -0.087300
     19 CAV         -5.2560    -1.3950    -0.2620 ca         1 FG3       0.087100
     20 CAW          3.7760    -0.7000    -0.2970 ca         1 FG3       0.142900
     21 CAX         -0.8380     0.0370    -0.2710 cd         1 FG3      -0.072300
     22 CAY         -2.9140    -0.8810    -0.5190 ca         1 FG3      -0.070800
     23 CAZ         -2.9770     0.0580     0.4690 ca         1 FG3      -0.071200
     24 SBB          2.8320    -0.4080    -1.8580 sy         1 FG3       1.119900
     25 O           -2.8520     3.6370     1.7900 o          1 FG3      -0.706500
     26 HA          -0.4130     1.7670     1.8850 h1         1 FG3       0.052700
     27 HAA         -2.0070     1.4610     2.5780 h1         1 FG3       0.052700
     28 HAAA        -8.0140    -0.9510    -0.1940 h1         1 FG3       0.028033
     29 HAAB        -8.3680    -2.6610    -0.5190 h1         1 FG3       0.028033
     30 HAAC        -7.6080    -2.1960     1.0180 h1         1 FG3       0.028033
     31 HAB          7.0160    -1.4480     3.1700 hc         1 FG3       0.044367
     32 HABA         5.7540    -0.6190     4.0980 hc         1 FG3       0.044367
     33 HABB         5.6340    -2.3590     3.8020 hc         1 FG3       0.044367
     34 HAH          5.5830     1.0100     2.0590 ha         1 FG3       0.117000
     35 HAI          4.3180     1.3980    -0.0580 ha         1 FG3       0.159000
     36 HAJ         -6.2640    -0.2170     1.2860 ha         1 FG3       0.100000
     37 HAK         -4.2440     1.0660     1.9260 ha         1 FG3       0.116000
     38 HAL          4.5700    -3.1910     1.7310 h4         1 FG3       0.017100
     39 HAM         -3.9520    -2.3720    -1.7050 ha         1 FG3       0.115000
     40 HAN         -1.1980    -1.5550    -1.7940 ha         1 FG3       0.193000
     41 HNAQ         0.6930    -1.1230    -1.9160 hn         1 FG3       0.361500
     42 OAR         -6.3500    -2.1380    -0.6590 os         1 FG3      -0.357100
     43 CAT          0.6220     0.3290    -0.4590 c          1 FG3       0.697300
     44 CAB          5.9360    -1.4040     3.3540 c3         1 FG3      -0.047800
@<TRIPOS>BOND
     1     1     3 1   
     2     1     4 1   
     3     1    25 1   
     4     2     4 1   
     5     2    21 1   
     6     2    23 1   
     7     4    26 1   
     8     4    27 1   
     9     5    28 1   
    10     5    29 1   
    11     5    30 1   
    12     5    42 1   
    13     6    43 2   
    14     7    24 2   
    15     8    24 2   
    16     9    10 ar  
    17     9    18 ar  
    18     9    34 1   
    19    10    20 ar  
    20    10    35 1   
    21    11    12 ar  
    22    11    19 ar  
    23    11    36 1   
    24    12    23 ar  
    25    12    37 1   
    26    13    16 ar  
    27    13    18 ar  
    28    13    38 1   
    29    14    19 ar  
    30    14    22 ar  
    31    14    39 1   
    32    15    21 2   
    33    15    22 1   
    34    15    40 1   
    35    16    20 ar  
    36    17    24 1   
    37    17    41 1   
    38    17    43 1   
    39    18    44 1   
    40    19    42 1   
    41    20    24 1   
    42    21    43 1   
    43    22    23 ar  
    44    31    44 1   
    45    32    44 1   
    46    33    44 1   
@<TRIPOS>SUBSTRUCTURE
     1 FG3         1 TEMP              0 ****  ****    0 ROOT
