@<TRIPOS>MOLECULE
FG4
   44    47     1     0     0
SMALL
bcc


@<TRIPOS>ATOM
      1 C            0.3410    -0.5850     1.7480 c          1 FG4       0.930600
      2 N           -1.4020     0.1360     0.0740 na         1 FG4       0.029600
      3 O            0.0800     0.4580     2.3740 o          1 FG4      -0.816800
      4 CA          -0.3020    -0.7640     0.3530 c3         1 FG4      -0.122700
      5 CAA         -7.4010    -1.8480    -0.7270 c3         1 FG4       0.135700
      6 OAC         -0.2280     3.4170     0.9150 o          1 FG4      -0.549000
      7 CAE          6.2450    -1.6940    -1.3580 ca         1 FG4      -0.160000
      8 CAF          5.5210    -2.3670    -0.3630 ca         1 FG4      -0.133000
      9 CAG         -4.6180    -1.6530    -0.3960 ca         1 FG4      -0.204000
     10 CAH          5.9130    -0.4070    -1.7440 ca         1 FG4      -0.096000
     11 CAI          4.4460    -1.7710     0.2770 ca         1 FG4      -0.095000
     12 CAJ         -3.2510    -1.5360    -0.2330 ca         1 FG4      -0.091000
     13 CAK         -4.9140     0.7490    -0.2610 ca         1 FG4      -0.124000
     14 CAL          4.1680     1.4830    -1.2220 cc         1 FG4      -0.202200
     15 CAM         -2.6750     1.9970     0.1000 cc         1 FG4      -0.182200
     16 CAN          2.1310     2.4420     0.0570 c3         1 FG4       0.212600
     17 OAQ          0.8710     1.8150    -0.1910 os         1 FG4      -0.402900
     18 OAR          3.1390     0.2820     0.3660 os         1 FG4      -0.106200
     19 CAU         -5.4520    -0.5160    -0.4110 ca         1 FG4       0.083100
     20 CAV          3.1690     1.4560    -0.3160 cd         1 FG4       0.034900
     21 CAW         -1.4010     1.5030     0.1980 cd         1 FG4      -0.053300
     22 CAX          4.8340     0.2130    -1.1120 ca         1 FG4      -0.120800
     23 CAY         -3.5320     0.8810    -0.0910 ca         1 FG4      -0.078800
     24 CAZ          4.1380    -0.4820    -0.1200 ca         1 FG4       0.069100
     25 CBA         -2.7040    -0.2630    -0.0850 ca         1 FG4      -0.070200
     26 OXT          1.0760    -1.5230     2.0980 o          1 FG4      -0.816800
     27 HA           0.4740    -0.6650    -0.4070 h1         1 FG4       0.050200
     28 HAA         -0.6820    -1.7810     0.2680 h1         1 FG4       0.050200
     29 HAAA        -8.4700    -1.6710    -0.8230 h1         1 FG4       0.027367
     30 HAAB        -7.0520    -2.3640    -1.6260 h1         1 FG4       0.027367
     31 HAAC        -7.2330    -2.5000     0.1360 h1         1 FG4       0.027367
     32 HAG         -5.0340    -2.6440    -0.5170 ha         1 FG4       0.117000
     33 HAH          6.4740     0.1030    -2.5170 ha         1 FG4       0.123000
     34 HAI          3.8700    -2.2810     1.0370 ha         1 FG4       0.180000
     35 HAJ         -2.6390    -2.4280    -0.2300 ha         1 FG4       0.134000
     36 HAK         -5.5590     1.6200    -0.2730 ha         1 FG4       0.133000
     37 HAL          4.3990     2.2960    -1.8910 ha         1 FG4       0.152000
     38 HAM         -2.9540     3.0390     0.1350 ha         1 FG4       0.152000
     39 HAN          2.2440     3.3440    -0.5460 h1         1 FG4       0.066200
     40 HANA         2.2160     2.7190     1.1100 h1         1 FG4       0.066200
     41 OAP         -6.7970    -0.5830    -0.5690 os         1 FG4      -0.334900
     42 CAT         -0.2060     2.3360     0.3800 c          1 FG4       0.718300
     43 HAE          7.0760    -2.1970    -1.8340 ha         1 FG4       0.116000
     44 HAF          5.8050    -3.3750    -0.0920 ha         1 FG4       0.124000
@<TRIPOS>BOND
     1     1     3 1   
     2     1     4 1   
     3     1    26 1   
     4     2     4 1   
     5     2    21 1   
     6     2    25 1   
     7     4    27 1   
     8     4    28 1   
     9     5    29 1   
    10     5    30 1   
    11     5    31 1   
    12     5    41 1   
    13     6    42 2   
    14     7     8 ar  
    15     7    10 ar  
    16     7    43 1   
    17     8    11 ar  
    18     8    44 1   
    19     9    12 ar  
    20     9    19 ar  
    21     9    32 1   
    22    10    22 ar  
    23    10    33 1   
    24    11    24 ar  
    25    11    34 1   
    26    12    25 ar  
    27    12    35 1   
    28    13    19 ar  
    29    13    23 ar  
    30    13    36 1   
    31    14    20 2   
    32    14    22 1   
    33    14    37 1   
    34    15    21 2   
    35    15    23 1   
    36    15    38 1   
    37    16    17 1   
    38    16    20 1   
    39    16    39 1   
    40    16    40 1   
    41    17    42 1   
    42    18    20 1   
    43    18    24 1   
    44    19    41 1   
    45    21    42 1   
    46    22    24 ar  
    47    23    25 ar  
@<TRIPOS>SUBSTRUCTURE
     1 FG4         1 TEMP              0 ****  ****    0 ROOT
