@<TRIPOS>MOLECULE
FG4
   44    47     1     0     0
SMALL
No Charge or Current Charge


@<TRIPOS>ATOM
      1 C           -0.3310    -1.9470     0.6980 c          1 FG4       0.720000
      2 N           -1.6140     0.0010    -0.2400 na         1 FG4       0.000300
      3 O            0.1080    -1.4430     1.7220 o          1 FG4      -0.711500
      4 CA          -0.5990    -1.0390    -0.5120 c3         1 FG4      -0.093400
      5 CAA         -7.9750    -1.3620    -0.5580 c3         1 FG4       0.158900
      6 OAC         -0.2340     3.3320     0.7400 o          1 FG4      -0.500000
      7 CAE          6.7700    -1.5770    -1.1140 ca         1 FG4      -0.142000
      8 CAF          7.2560    -1.0980     0.1300 ca         1 FG4      -0.115000
      9 CAG         -5.0670    -1.4380    -0.6100 ca         1 FG4      -0.186000
     10 CAH          5.5320    -1.1270    -1.6260 ca         1 FG4      -0.078000
     11 CAI          6.5090    -0.1610     0.8780 ca         1 FG4      -0.077000
     12 CAJ         -3.6550    -1.4350    -0.6240 ca         1 FG4      -0.073000
     13 CAK         -5.0820     0.9180     0.0600 ca         1 FG4      -0.106000
     14 CAL          3.5380     0.4450    -1.1060 cc         1 FG4      -0.252200
     15 CAM         -2.7320     1.9080     0.3230 cc         1 FG4      -0.232200
     16 CAN          2.1990     2.1910     0.3430 c3         1 FG4       0.235800
     17 OAQ          0.9590     1.4880     0.1480 os         1 FG4      -0.426100
     18 OAR          4.3990     1.1490     0.8680 os         1 FG4      -0.106200
     19 CAU         -5.7850    -0.2590    -0.2680 ca         1 FG4       0.083100
     20 CAV          3.3390     1.2630     0.0000 cd         1 FG4       0.034900
     21 CAW         -1.4580     1.3620     0.1560 cd         1 FG4      -0.053300
     22 CAX          4.8130    -0.1980    -0.8640 ca         1 FG4      -0.120800
     23 CAY         -3.6830     0.8830     0.0340 ca         1 FG4      -0.078800
     24 CAZ          5.2890     0.2630     0.3410 ca         1 FG4       0.069100
     25 CBA         -2.9840    -0.2440    -0.2960 ca         1 FG4      -0.070200
     26 OXT         -0.5790    -3.1390     0.5860 o          1 FG4      -0.711500
     27 HA           0.3460    -0.5870    -0.8250 h1         1 FG4       0.050200
     28 HAA         -0.9450    -1.6610    -1.3460 h1         1 FG4       0.050200
     29 HAAA        -9.0390    -1.1090    -0.4750 h1         1 FG4       0.027367
     30 HAAB        -7.7850    -1.7010    -1.5840 h1         1 FG4       0.027367
     31 HAAC        -7.7670    -2.1890     0.1320 h1         1 FG4       0.027367
     32 HAG         -5.5830    -2.3580    -0.8650 ha         1 FG4       0.099000
     33 HAH          5.1510    -1.4890    -2.5790 ha         1 FG4       0.105000
     34 HAI          6.8650     0.2180     1.8340 ha         1 FG4       0.162000
     35 HAJ         -3.1080    -2.3380    -0.8830 ha         1 FG4       0.116000
     36 HAK         -5.6140     1.8270     0.3260 ha         1 FG4       0.115000
     37 HAL          2.8660     0.3280    -1.9520 ha         1 FG4       0.202000
     38 HAM         -2.9450     2.9320     0.6240 ha         1 FG4       0.202000
     39 HAN          2.2560     3.0740    -0.3060 h1         1 FG4       0.066200
     40 HANA         2.3010     2.5210     1.3850 h1         1 FG4       0.066200
     41 OAP         -7.1650    -0.2160    -0.2400 os         1 FG4      -0.358100
     42 CAT         -0.2100     2.1580     0.3850 c          1 FG4       0.669300
     43 HAE          7.3550    -2.2980    -1.6790 ha         1 FG4       0.098000
     44 HAF          8.2110    -1.4550     0.5100 ha         1 FG4       0.106000
@<TRIPOS>BOND
     1     1     3 1   
     2     1     4 1   
     3     1    26 1   
     4     2     4 1   
     5     2    21 1   
     6     2    25 1   
     7     4    27 1   
     8     4    28 1   
     9     5    29 1   
    10     5    30 1   
    11     5    31 1   
    12     5    41 1   
    13     6    42 2   
    14     7     8 ar  
    15     7    10 ar  
    16     7    43 1   
    17     8    11 ar  
    18     8    44 1   
    19     9    12 ar  
    20     9    19 ar  
    21     9    32 1   
    22    10    22 ar  
    23    10    33 1   
    24    11    24 ar  
    25    11    34 1   
    26    12    25 ar  
    27    12    35 1   
    28    13    19 ar  
    29    13    23 ar  
    30    13    36 1   
    31    14    20 2   
    32    14    22 1   
    33    14    37 1   
    34    15    21 2   
    35    15    23 1   
    36    15    38 1   
    37    16    17 1   
    38    16    20 1   
    39    16    39 1   
    40    16    40 1   
    41    17    42 1   
    42    18    20 1   
    43    18    24 1   
    44    19    41 1   
    45    21    42 1   
    46    22    24 ar  
    47    23    25 ar  
@<TRIPOS>SUBSTRUCTURE
     1 FG4         1 TEMP              0 ****  ****    0 ROOT
