@<TRIPOS>MOLECULE
FG5
   46    49     1     0     0
SMALL
abcg2


@<TRIPOS>ATOM
      1 C            1.7100    -2.6400     1.0640 c          1 FG5       0.716000
      2 N            2.1910    -0.4920    -0.1560 na         1 FG5       0.002300
      3 OXT          1.6630    -3.8790     0.9640 o          1 FG5      -0.709000
      4 CA           1.9190    -1.9010    -0.2790 c3         1 FG5      -0.100400
      5 CAA          8.0430     2.0080    -0.0300 c3         1 FG5       0.159900
      6 OAC         -2.1890    -1.1840    -2.7940 o          1 FG5      -0.513500
      7 OAD         -1.7900    -2.2310    -0.5290 o          1 FG5      -0.513500
      8 CAF         -7.0020     1.9880     0.8140 ca         1 FG5      -0.142000
      9 CAG         -6.3320     1.7050     2.0140 ca         1 FG5      -0.087000
     10 CAH          5.8110     0.3160    -0.2270 ca         1 FG5      -0.193000
     11 CAI         -6.4910     1.5850    -0.4050 ca         1 FG5      -0.053000
     12 CAJ         -5.1330     1.0140     2.0330 ca         1 FG5      -0.102000
     13 CAK          4.6950    -0.4990    -0.3120 ca         1 FG5      -0.064000
     14 CAL          4.4370     2.2540     0.2590 ca         1 FG5      -0.115000
     15 CAM          1.9060     1.6800     0.3310 cc         1 FG5      -0.284200
     16 CAN         -4.4460     0.3170    -1.4270 cc         1 FG5      -0.114200
     17 NAQ         -0.7070    -0.0790    -1.1400 n7         1 FG5      -0.878300
     18 OAS         -3.4920    -0.0640     0.5810 os         1 FG5      -0.112200
     19 CAU          5.6860     1.6890     0.0560 ca         1 FG5       0.085100
     20 CAV          1.2760     0.4810     0.1340 cd         1 FG5      -0.032300
     21 CAW         -3.4110    -0.2300    -0.7600 cd         1 FG5      -0.172000
     22 CAX         -5.2820     0.8870    -0.4100 ca         1 FG5      -0.140800
     23 CAY          3.3030     1.4420     0.1790 ca         1 FG5      -0.066800
     24 CAZ         -4.6390     0.6220     0.8010 ca         1 FG5       0.081100
     25 CBA          3.4420     0.0670    -0.1120 ca         1 FG5      -0.063200
     26 SBC         -1.9890    -1.0630    -1.3640 sy         1 FG5       1.177200
     27 O            1.5840    -1.9480     2.0870 o          1 FG5      -0.709000
     28 HA           2.7390    -2.3650    -0.8290 h1         1 FG5       0.047200
     29 HAA          1.0320    -2.0440    -0.8980 h1         1 FG5       0.047200
     30 HAAA         8.2830     1.2340     0.7040 h1         1 FG5       0.026700
     31 HAAB         8.1890     1.5940    -1.0320 h1         1 FG5       0.026700
     32 HAAC         8.7340     2.8380     0.1060 h1         1 FG5       0.026700
     33 HAH          6.7830    -0.1300    -0.3870 ha         1 FG5       0.099000
     34 HAI         -7.0110     1.8020    -1.3290 ha         1 FG5       0.116000
     35 HAJ         -4.6140     0.7950     2.9570 ha         1 FG5       0.140000
     36 HAK          4.8210    -1.5520    -0.5280 ha         1 FG5       0.120000
     37 HAL          4.3480     3.3120     0.4760 ha         1 FG5       0.110000
     38 HAM          1.4210     2.6170     0.5590 ha         1 FG5       0.184000
     39 HAN         -4.6050     0.3170    -2.4930 ha         1 FG5       0.228000
     40 HNAQ        -0.6920     0.7080    -1.7800 hn         1 FG5       0.481000
     41 CAO         -0.1850     0.2080     0.1980 c3         1 FG5       0.268000
     42 OAR          6.7460     2.5310     0.1500 os         1 FG5      -0.359100
     43 HAF         -7.9360     2.5330     0.8490 ha         1 FG5       0.109000
     44 HAO         -0.6860     1.0730     0.6360 h1         1 FG5       0.081200
     45 HAOA        -0.3730    -0.6470     0.8460 h1         1 FG5       0.081200
     46 HAG         -6.7640     2.0340     2.9500 ha         1 FG5       0.112000
@<TRIPOS>BOND
     1     1     3 1   
     2     1     4 1   
     3     1    27 1   
     4     2     4 1   
     5     2    20 1   
     6     2    25 1   
     7     4    28 1   
     8     4    29 1   
     9     5    30 1   
    10     5    31 1   
    11     5    32 1   
    12     5    42 1   
    13     6    26 2   
    14     7    26 2   
    15     8     9 ar  
    16     8    11 ar  
    17     8    43 1   
    18     9    12 ar  
    19     9    46 1   
    20    10    13 ar  
    21    10    19 ar  
    22    10    33 1   
    23    11    22 ar  
    24    11    34 1   
    25    12    24 ar  
    26    12    35 1   
    27    13    25 ar  
    28    13    36 1   
    29    14    19 ar  
    30    14    23 ar  
    31    14    37 1   
    32    15    20 2   
    33    15    23 1   
    34    15    38 1   
    35    16    21 2   
    36    16    22 1   
    37    16    39 1   
    38    17    26 1   
    39    17    40 1   
    40    17    41 1   
    41    18    21 1   
    42    18    24 1   
    43    19    42 1   
    44    20    41 1   
    45    21    26 1   
    46    22    24 ar  
    47    23    25 ar  
    48    41    44 1   
    49    41    45 1   
@<TRIPOS>SUBSTRUCTURE
     1 FG5         1 TEMP              0 ****  ****    0 ROOT
