@<TRIPOS>MOLECULE
FG5
   46    49     1     0     0
SMALL
No Charge or Current Charge


@<TRIPOS>ATOM
      1 C            2.7690    -3.2240    -1.4780 c          1 FG5       0.716000
      2 N            2.1360    -1.0970    -0.3190 na         1 FG5       0.002300
      3 OXT          3.8200    -3.3290    -2.0930 o          1 FG5      -0.709000
      4 CA           2.0150    -1.8900    -1.5550 c3         1 FG5      -0.100400
      5 CAA          7.1790     2.8610     0.8120 c3         1 FG5       0.159900
      6 OAC         -2.7700    -2.6510    -0.8780 o          1 FG5      -0.513500
      7 OAD         -2.8480    -2.2150     1.6660 o          1 FG5      -0.513500
      8 CAF         -5.8510     3.6290    -0.9180 ca         1 FG5      -0.142000
      9 CAG         -5.7810     3.7240     0.4960 ca         1 FG5      -0.087000
     10 CAH          5.2840     0.9530    -0.2980 ca         1 FG5      -0.193000
     11 CAI         -5.2840     2.5270    -1.5970 ca         1 FG5      -0.053000
     12 CAJ         -5.1420     2.7150     1.2500 ca         1 FG5      -0.102000
     13 CAK          4.3400     0.0320    -0.8040 ca         1 FG5      -0.064000
     14 CAL          3.9110     1.2880     1.7030 ca         1 FG5      -0.115000
     15 CAM          1.7600    -0.1130     1.7010 cc         1 FG5      -0.284200
     16 CAN         -3.9920     0.3110    -1.2140 cc         1 FG5      -0.114200
     17 NAQ         -1.1430    -1.0800     0.2090 n7         1 FG5      -0.878300
     18 OAS         -3.9340     0.5560     1.0470 os         1 FG5      -0.112200
     19 CAU          5.0710     1.5850     0.9580 ca         1 FG5       0.085100
     20 CAV          1.2420    -1.0170     0.7790 cd         1 FG5      -0.032300
     21 CAW         -3.5730    -0.2480    -0.0110 cd         1 FG5      -0.172000
     22 CAX         -4.6570     1.5400    -0.8250 ca         1 FG5      -0.140800
     23 CAY          2.9980     0.3710     1.1710 ca         1 FG5      -0.066800
     24 CAZ         -4.5930     1.6380     0.5470 ca         1 FG5       0.081100
     25 CBA          3.1940    -0.2390    -0.0380 ca         1 FG5      -0.063200
     26 SBC         -2.6630    -1.7640     0.2840 sy         1 FG5       1.177200
     27 O            2.2780    -4.1270    -0.8160 o          1 FG5      -0.709000
     28 HA           2.4000    -1.3090    -2.4010 h1         1 FG5       0.047200
     29 HAA          0.9570    -2.1020    -1.7490 h1         1 FG5       0.047200
     30 HAAA         7.8200     1.9840     0.6540 h1         1 FG5       0.026700
     31 HAAB         6.9560     3.3170    -0.1610 h1         1 FG5       0.026700
     32 HAAC         7.7400     3.5900     1.4090 h1         1 FG5       0.026700
     33 HAH          6.1690     1.1620    -0.8910 ha         1 FG5       0.099000
     34 HAI         -5.3340     2.4480    -2.6810 ha         1 FG5       0.116000
     35 HAJ         -5.0790     2.7690     2.3340 ha         1 FG5       0.140000
     36 HAK          4.5040    -0.4540    -1.7630 ha         1 FG5       0.120000
     37 HAL          3.7320     1.7600     2.6660 ha         1 FG5       0.110000
     38 HAM          1.2980     0.1620     2.6460 ha         1 FG5       0.184000
     39 HAN         -3.8380    -0.0960    -2.2120 ha         1 FG5       0.228000
     40 HNAQ        -1.2920    -0.1850     0.6710 hn         1 FG5       0.481000
     41 CAO         -0.0450    -1.8010     0.8700 c3         1 FG5       0.268000
     42 OAR          5.9650     2.4900     1.4910 os         1 FG5      -0.359100
     43 HAF         -6.3460     4.4140    -1.4860 ha         1 FG5       0.109000
     44 HAO         -0.2620    -1.9730     1.9350 h1         1 FG5       0.081200
     45 HAOA         0.1060    -2.7890     0.4120 h1         1 FG5       0.081200
     46 HAG         -6.2220     4.5790     1.0030 ha         1 FG5       0.112000
@<TRIPOS>BOND
     1     1     3 1   
     2     1     4 1   
     3     1    27 1   
     4     2     4 1   
     5     2    20 1   
     6     2    25 1   
     7     4    28 1   
     8     4    29 1   
     9     5    30 1   
    10     5    31 1   
    11     5    32 1   
    12     5    42 1   
    13     6    26 2   
    14     7    26 2   
    15     8     9 ar  
    16     8    11 ar  
    17     8    43 1   
    18     9    12 ar  
    19     9    46 1   
    20    10    13 ar  
    21    10    19 ar  
    22    10    33 1   
    23    11    22 ar  
    24    11    34 1   
    25    12    24 ar  
    26    12    35 1   
    27    13    25 ar  
    28    13    36 1   
    29    14    19 ar  
    30    14    23 ar  
    31    14    37 1   
    32    15    20 2   
    33    15    23 1   
    34    15    38 1   
    35    16    21 2   
    36    16    22 1   
    37    16    39 1   
    38    17    26 1   
    39    17    40 1   
    40    17    41 1   
    41    18    21 1   
    42    18    24 1   
    43    19    42 1   
    44    20    41 1   
    45    21    26 1   
    46    22    24 ar  
    47    23    25 ar  
    48    41    44 1   
    49    41    45 1   
@<TRIPOS>SUBSTRUCTURE
     1 FG5         1 TEMP              0 ****  ****    0 ROOT
