@<TRIPOS>MOLECULE
FG6
   45    48     1     0     0
SMALL
No Charge or Current Charge


@<TRIPOS>ATOM
      1 C           -2.3130     2.6940     2.0030 c          1 FG6       0.721000
      2 N           -1.9620     0.5140     0.8120 na         1 FG6       0.016300
      3 OXT         -1.8740     3.4920     1.1870 o          1 FG6      -0.705500
      4 CA          -1.7070     1.2850     2.0450 c3         1 FG6      -0.105400
      5 CAA         -7.7000    -2.3780    -0.2330 c3         1 FG6       0.158900
      6 OAC          0.9190     1.4090     0.3230 o          1 FG6      -0.542100
      7 OAD          2.5030    -0.0760    -3.4910 o          1 FG6      -0.518500
      8 OAE          2.6330     2.0810    -2.1110 o          1 FG6      -0.518500
      9 CAG          5.9140    -2.5170     2.0990 ca         1 FG6      -0.144000
     10 CAH          6.0360    -1.2080     2.6300 ca         1 FG6      -0.088000
     11 CAI         -5.4480    -0.8860     0.8470 ca         1 FG6      -0.187000
     12 CAJ          5.1650    -2.7550     0.9240 ca         1 FG6      -0.051000
     13 CAK          5.4080    -0.1160     1.9900 ca         1 FG6      -0.100000
     14 CAL         -4.3320    -0.1710     1.3360 ca         1 FG6      -0.068000
     15 CAM         -4.2080    -1.4620    -1.1850 ca         1 FG6      -0.111000
     16 CAN          3.7310    -1.5680    -0.8820 cc         1 FG6      -0.119200
     17 CAO         -1.8280    -0.5110    -1.2220 cc         1 FG6      -0.263200
     18 NAQ          0.8560     0.3450    -1.6700 ns         1 FG6      -0.576300
     19 OAS          3.9870     0.4920     0.0470 os         1 FG6      -0.078200
     20 CAV         -5.3880    -1.5350    -0.4170 ca         1 FG6       0.089100
     21 CAW          3.4150    -0.2170    -0.9850 cd         1 FG6      -0.151000
     22 CAX         -1.1090     0.2690    -0.3030 cd         1 FG6      -0.072300
     23 CAY          4.5530    -1.6550     0.3100 ca         1 FG6      -0.138800
     24 CAZ         -3.1230    -0.7450    -0.6660 ca         1 FG6      -0.070800
     25 CBA          4.6740    -0.3850     0.8300 ca         1 FG6       0.084100
     26 CBB         -3.1710    -0.1200     0.5460 ca         1 FG6      -0.071200
     27 SBD          2.4110     0.6330    -2.2090 sy         1 FG6       1.215900
     28 O           -3.2070     2.9590     2.7940 o          1 FG6      -0.705500
     29 HA          -0.6320     1.3760     2.2220 h1         1 FG6       0.054200
     30 HAA         -2.1340     0.7440     2.8970 h1         1 FG6       0.054200
     31 HAAA        -7.5510    -2.8780     0.7330 h1         1 FG6       0.028367
     32 HAAB        -8.1550    -1.3950    -0.0560 h1         1 FG6       0.028367
     33 HAAC        -8.4050    -2.9790    -0.8220 h1         1 FG6       0.028367
     34 HAI         -6.3450    -0.9250     1.4580 ha         1 FG6       0.101000
     35 HAJ          5.0670    -3.7570     0.5120 ha         1 FG6       0.115000
     36 HAK          5.4890     0.8950     2.3820 ha         1 FG6       0.139000
     37 HAL         -4.3800     0.3260     2.3020 ha         1 FG6       0.118000
     38 HAM         -4.1430    -1.9500    -2.1530 ha         1 FG6       0.114000
     39 HAN          3.4180    -2.3670    -1.5530 ha         1 FG6       0.222000
     40 HAO         -1.4770    -0.8780    -2.1820 ha         1 FG6       0.188000
     41 HNAQ         0.3370    -0.2280    -2.3080 hn         1 FG6       0.358500
     42 OAR         -6.4520    -2.2440    -0.9360 os         1 FG6      -0.357100
     43 CAU          0.3030     0.7410    -0.4930 c          1 FG6       0.692300
     44 HAG          6.4030    -3.3490     2.6010 ha         1 FG6       0.108000
     45 HAH          6.6160    -1.0420     3.5350 ha         1 FG6       0.110000
@<TRIPOS>BOND
     1     1     3 1   
     2     1     4 1   
     3     1    28 1   
     4     2     4 1   
     5     2    22 1   
     6     2    26 1   
     7     4    29 1   
     8     4    30 1   
     9     5    31 1   
    10     5    32 1   
    11     5    33 1   
    12     5    42 1   
    13     6    43 2   
    14     7    27 2   
    15     8    27 2   
    16     9    10 ar  
    17     9    12 ar  
    18     9    44 1   
    19    10    13 ar  
    20    10    45 1   
    21    11    14 ar  
    22    11    20 ar  
    23    11    34 1   
    24    12    23 ar  
    25    12    35 1   
    26    13    25 ar  
    27    13    36 1   
    28    14    26 ar  
    29    14    37 1   
    30    15    20 ar  
    31    15    24 ar  
    32    15    38 1   
    33    16    21 2   
    34    16    23 1   
    35    16    39 1   
    36    17    22 2   
    37    17    24 1   
    38    17    40 1   
    39    18    27 1   
    40    18    41 1   
    41    18    43 1   
    42    19    21 1   
    43    19    25 1   
    44    20    42 1   
    45    21    27 1   
    46    22    43 1   
    47    23    25 ar  
    48    24    26 ar  
@<TRIPOS>SUBSTRUCTURE
     1 FG6         1 TEMP              0 ****  ****    0 ROOT
