@<TRIPOS>MOLECULE
FG6
   45    48     1     0     0
SMALL
abcg2


@<TRIPOS>ATOM
      1 C           -1.6100     3.0530     1.0050 c          1 FG6       0.721000
      2 N           -2.0600     0.5880     0.8340 na         1 FG6       0.016300
      3 OXT         -1.5260     4.0300     1.7700 o          1 FG6      -0.705500
      4 CA          -1.9160     1.7160     1.7230 c3         1 FG6      -0.105400
      5 CAA         -7.4520    -2.7040     0.0550 c3         1 FG6       0.158900
      6 OAC          0.8450     1.0810     0.7960 o          1 FG6      -0.542100
      7 OAD          2.5330     0.8450    -3.1200 o          1 FG6      -0.518500
      8 OAE          2.6010     2.5150    -1.2390 o          1 FG6      -0.518500
      9 CAG          5.7150    -2.8500     1.6420 ca         1 FG6      -0.144000
     10 CAH          5.8490    -1.6940     2.4280 ca         1 FG6      -0.088000
     11 CAI         -5.4390    -0.9340     0.8970 ca         1 FG6      -0.187000
     12 CAJ          4.9720    -2.8450     0.4790 ca         1 FG6      -0.051000
     13 CAK          5.2450    -0.5000     2.0770 ca         1 FG6      -0.100000
     14 CAL         -4.4300    -0.0850     1.3100 ca         1 FG6      -0.068000
     15 CAM         -4.0480    -1.8550    -0.8620 ca         1 FG6      -0.111000
     16 CAN          3.5320    -1.2380    -0.9950 cc         1 FG6      -0.119200
     17 CAO         -1.7020    -0.7630    -0.9340 cc         1 FG6      -0.263200
     18 NAQ          0.7490     0.7530    -1.4340 ns         1 FG6      -0.576300
     19 OAS          3.8330     0.5290     0.3740 os         1 FG6      -0.078200
     20 CAV         -5.2520    -1.8220    -0.1820 ca         1 FG6       0.089100
     21 CAW          3.2630     0.0620    -0.7560 cd         1 FG6      -0.151000
     22 CAX         -1.1640     0.2080    -0.1270 cd         1 FG6      -0.072300
     23 CAY          4.3530    -1.6500     0.1040 ca         1 FG6      -0.138800
     24 CAZ         -3.0220    -0.9940    -0.4620 ca         1 FG6      -0.070800
     25 CBA          4.5030    -0.5160     0.9070 ca         1 FG6       0.084100
     26 CBB         -3.2150    -0.1200     0.6310 ca         1 FG6      -0.071200
     27 SBD          2.3330     1.1840    -1.7260 sy         1 FG6       1.215900
     28 O           -1.4780     3.0280    -0.2290 o          1 FG6      -0.705500
     29 HA          -1.1390     1.5200     2.4630 h1         1 FG6       0.054200
     30 HAA         -2.8470     1.8220     2.2790 h1         1 FG6       0.054200
     31 HAAA        -7.3500    -2.9770     1.1090 h1         1 FG6       0.028367
     32 HAAB        -7.9760    -1.7460    -0.0090 h1         1 FG6       0.028367
     33 HAAC        -8.0540    -3.4620    -0.4410 h1         1 FG6       0.028367
     34 HAI         -6.3800    -0.9020     1.4280 ha         1 FG6       0.101000
     35 HAJ          4.8700    -3.7370    -0.1240 ha         1 FG6       0.115000
     36 HAK          5.3470     0.3930     2.6790 ha         1 FG6       0.139000
     37 HAL         -4.5990     0.5810     2.1460 ha         1 FG6       0.118000
     38 HAM         -3.9110    -2.5370    -1.6930 ha         1 FG6       0.114000
     39 HAN          3.1910    -1.8290    -1.8290 ha         1 FG6       0.222000
     40 HAO         -1.2040    -1.2800    -1.7400 ha         1 FG6       0.188000
     41 HNAQ         0.1970     0.5240    -2.2530 hn         1 FG6       0.358500
     42 OAR         -6.2090    -2.6790    -0.6130 os         1 FG6      -0.357100
     43 CAU          0.2000     0.7440    -0.1720 c          1 FG6       0.692300
     44 HAG          6.2070    -3.7600     1.9590 ha         1 FG6       0.108000
     45 HAH          6.4400    -1.7370     3.3330 ha         1 FG6       0.110000
@<TRIPOS>BOND
     1     1     3 1   
     2     1     4 1   
     3     1    28 1   
     4     2     4 1   
     5     2    22 1   
     6     2    26 1   
     7     4    29 1   
     8     4    30 1   
     9     5    31 1   
    10     5    32 1   
    11     5    33 1   
    12     5    42 1   
    13     6    43 2   
    14     7    27 2   
    15     8    27 2   
    16     9    10 ar  
    17     9    12 ar  
    18     9    44 1   
    19    10    13 ar  
    20    10    45 1   
    21    11    14 ar  
    22    11    20 ar  
    23    11    34 1   
    24    12    23 ar  
    25    12    35 1   
    26    13    25 ar  
    27    13    36 1   
    28    14    26 ar  
    29    14    37 1   
    30    15    20 ar  
    31    15    24 ar  
    32    15    38 1   
    33    16    21 2   
    34    16    23 1   
    35    16    39 1   
    36    17    22 2   
    37    17    24 1   
    38    17    40 1   
    39    18    27 1   
    40    18    41 1   
    41    18    43 1   
    42    19    21 1   
    43    19    25 1   
    44    20    42 1   
    45    21    27 1   
    46    22    43 1   
    47    23    25 ar  
    48    24    26 ar  
@<TRIPOS>SUBSTRUCTURE
     1 FG6         1 TEMP              0 ****  ****    0 ROOT
