@<TRIPOS>MOLECULE
FG7
   23    23     1     0     0
SMALL
No Charge or Current Charge


@<TRIPOS>ATOM
      1 C1          -2.7300     0.3050     0.0260 ca         1 FG7       0.280000
      2 N2          -3.8530     1.0910     0.0320 nv         1 FG7      -1.076000
      3 C3          -1.4550     0.8920     0.0190 ca         1 FG7      -0.129000
      4 C4          -0.2870     0.0930     0.0120 ca         1 FG7      -0.100600
      5 C5           1.0790     0.7500     0.0040 c          1 FG7       0.607700
      6 O6           2.1220    -0.1430    -0.0010 os         1 FG7      -0.446100
      7 C7           3.4620     0.3780    -0.0090 c3         1 FG7       0.168600
      8 C8           4.4220    -0.8220    -0.0130 c3         1 FG7      -0.097100
      9 C9          -0.4310    -1.3150     0.0130 ca         1 FG7      -0.102000
     10 C10         -1.7070    -1.9020     0.0210 ca         1 FG7      -0.089000
     11 C11         -2.8550    -1.0920     0.0280 ca         1 FG7      -0.153000
     12 O12          1.2330     1.9650     0.0020 o          1 FG7      -0.496000
     13 HN2         -3.7730     2.0980    -0.1030 hn         1 FG7       0.451500
     14 HN2A        -4.7720     0.6700    -0.0930 hn         1 FG7       0.451500
     15 H3          -1.3700     1.9760     0.0190 ha         1 FG7       0.134000
     16 H7           3.6390     0.9920    -0.9020 h1         1 FG7       0.048700
     17 H7A          3.6490     0.9940     0.8820 h1         1 FG7       0.048700
     18 H8           5.4620    -0.4750    -0.0190 hc         1 FG7       0.046367
     19 H8A          4.2710    -1.4410     0.8790 hc         1 FG7       0.046367
     20 H8B          4.2610    -1.4420    -0.9030 hc         1 FG7       0.046367
     21 H9           0.4430    -1.9630     0.0080 ha         1 FG7       0.131000
     22 H10         -1.8070    -2.9850     0.0220 ha         1 FG7       0.114000
     23 H11         -3.8390    -1.5530     0.0340 ha         1 FG7       0.113000
@<TRIPOS>BOND
     1     1     2 1   
     2     1     3 ar  
     3     1    11 ar  
     4     2    13 1   
     5     2    14 1   
     6     3     4 ar  
     7     3    15 1   
     8     4     5 1   
     9     4     9 ar  
    10     5     6 1   
    11     5    12 2   
    12     6     7 1   
    13     7     8 1   
    14     7    16 1   
    15     7    17 1   
    16     8    18 1   
    17     8    19 1   
    18     8    20 1   
    19     9    10 ar  
    20     9    21 1   
    21    10    11 ar  
    22    10    22 1   
    23    11    23 1   
@<TRIPOS>SUBSTRUCTURE
     1 FG7         1 TEMP              0 ****  ****    0 ROOT
