@<TRIPOS>MOLECULE
FG7
   23    23     1     0     0
SMALL
bcc


@<TRIPOS>ATOM
      1 C1          -2.6860     0.3120     0.0560 ca         1 FG7       0.141600
      2 N2          -3.7980     1.1190     0.1330 nv         1 FG7      -0.827200
      3 C3          -1.4010     0.8610     0.0420 ca         1 FG7      -0.147000
      4 C4          -0.2740     0.0460     0.0240 ca         1 FG7      -0.100600
      5 C5           1.0550     0.7130     0.0100 c          1 FG7       0.656700
      6 O6           2.0580    -0.1480    -0.0030 os         1 FG7      -0.422900
      7 C7           3.3960     0.3740    -0.0150 c3         1 FG7       0.145400
      8 C8           4.3510    -0.7940    -0.0180 c3         1 FG7      -0.097100
      9 C9          -0.4060    -1.3410     0.0150 ca         1 FG7      -0.120000
     10 C10         -1.6820    -1.8890     0.0230 ca         1 FG7      -0.107000
     11 C11         -2.8080    -1.0830     0.0430 ca         1 FG7      -0.171000
     12 O12          1.2060     1.9120     0.0120 o          1 FG7      -0.545000
     13 HN2         -3.6760     2.0700    -0.1760 hn         1 FG7       0.396300
     14 HN2A        -4.6580     0.7210    -0.2060 hn         1 FG7       0.396300
     15 H3          -1.2850     1.9380     0.0480 ha         1 FG7       0.152000
     16 H7           3.5370     0.9980    -0.9000 h1         1 FG7       0.048700
     17 H7A          3.5500     1.0030     0.8650 h1         1 FG7       0.048700
     18 H8           5.3730    -0.4160    -0.0260 hc         1 FG7       0.046367
     19 H8A          4.2310    -1.4150     0.8690 hc         1 FG7       0.046367
     20 H8B          4.2200    -1.4190    -0.9020 hc         1 FG7       0.046367
     21 H9           0.4570    -1.9900     0.0000 ha         1 FG7       0.149000
     22 H10         -1.8020    -2.9640     0.0140 ha         1 FG7       0.132000
     23 H11         -3.7930    -1.5350     0.0490 ha         1 FG7       0.131000
@<TRIPOS>BOND
     1     1     2 1   
     2     1     3 ar  
     3     1    11 ar  
     4     2    13 1   
     5     2    14 1   
     6     3     4 ar  
     7     3    15 1   
     8     4     5 1   
     9     4     9 ar  
    10     5     6 1   
    11     5    12 2   
    12     6     7 1   
    13     7     8 1   
    14     7    16 1   
    15     7    17 1   
    16     8    18 1   
    17     8    19 1   
    18     8    20 1   
    19     9    10 ar  
    20     9    21 1   
    21    10    11 ar  
    22    10    22 1   
    23    11    23 1   
@<TRIPOS>SUBSTRUCTURE
     1 FG7         1 TEMP              0 ****  ****    0 ROOT
