@<TRIPOS>MOLECULE
FG8
   32    33     1     0     0
SMALL
abcg2


@<TRIPOS>ATOM
      1 C1           3.8380    -0.2230    -0.0440 ce         1 FG8      -0.303200
      2 C2           2.5070    -0.1400    -0.0980 cf         1 FG8      -0.076200
      3 C3           1.5910    -1.2730     0.0240 ca         1 FG8      -0.048800
      4 C4           1.9770    -2.5500    -0.4030 ca         1 FG8      -0.095000
      5 C5           1.1170    -3.6270    -0.3200 ca         1 FG8      -0.103000
      6 C6          -0.1620    -3.4530     0.2010 ca         1 FG8      -0.097000
      7 C7          -0.5630    -2.2050     0.6410 ca         1 FG8      -0.092000
      8 N            5.9950     0.7130    -0.1200 ns         1 FG8      -0.385400
      9 C            4.6750     0.9870    -0.2080 c          1 FG8       0.604300
     10 C8           0.2990    -1.1150     0.5460 ca         1 FG8      -0.102000
     11 C10         -2.1150     0.4600    -0.7910 ca         1 FG8      -0.069500
     12 C11         -3.4040     0.6300    -1.2640 ca         1 FG8      -0.108000
     13 C12         -4.4120     0.9840    -0.3770 ca         1 FG8       0.131000
     14 C13         -4.1500     1.1600     0.9720 ca         1 FG8      -0.108000
     15 C14         -2.8580     0.9680     1.4410 ca         1 FG8      -0.069500
     16 C9          -1.8390     0.6190     0.5640 ca         1 FG8      -0.131000
     17 O            4.2320     2.1020    -0.4260 o          1 FG8      -0.567100
     18 O1           6.8900     1.7360    -0.0510 oh         1 FG8      -0.426100
     19 S           -0.1920     0.4610     1.1930 ss         1 FG8       0.065000
     20 H1           4.3360    -1.1690     0.1400 ha         1 FG8       0.179000
     21 H2           2.0570     0.8370    -0.2450 ha         1 FG8       0.217000
     22 H3           2.9590    -2.6870    -0.8380 ha         1 FG8       0.116000
     23 H4           1.4380    -4.6010    -0.6650 ha         1 FG8       0.118000
     24 H5          -0.8420    -4.2910     0.2740 ha         1 FG8       0.119000
     25 H6          -1.5520    -2.0740     1.0600 ha         1 FG8       0.127000
     26 H7           6.3350    -0.1680     0.2380 hn         1 FG8       0.331500
     27 H8          -1.3260     0.1980    -1.4840 ha         1 FG8       0.130500
     28 H9          -3.6180     0.5000    -2.3160 ha         1 FG8       0.132500
     29 H10         -4.9420     1.4280     1.6580 ha         1 FG8       0.132500
     30 H11         -2.6560     1.0820     2.4980 ha         1 FG8       0.130500
     31 H12          7.2730     1.8170    -0.9340 ho         1 FG8       0.446000
     32 CL          -6.0240     1.2040    -0.9680 cl         1 FG8      -0.197000
@<TRIPOS>BOND
     1     1     2 2   
     2     1     9 1   
     3     1    20 1   
     4     2     3 1   
     5     2    21 1   
     6     3     4 ar  
     7     3    10 ar  
     8     4     5 ar  
     9     4    22 1   
    10     5     6 ar  
    11     5    23 1   
    12     6     7 ar  
    13     6    24 1   
    14     7    10 ar  
    15     7    25 1   
    16     8     9 1   
    17     8    18 1   
    18     8    26 1   
    19     9    17 2   
    20    10    19 1   
    21    11    12 ar  
    22    11    16 ar  
    23    11    27 1   
    24    12    13 ar  
    25    12    28 1   
    26    13    14 ar  
    27    13    32 1   
    28    14    15 ar  
    29    14    29 1   
    30    15    16 ar  
    31    15    30 1   
    32    16    19 1   
    33    18    31 1   
@<TRIPOS>SUBSTRUCTURE
     1 FG8         1 TEMP              0 ****  ****    0 ROOT
