@<TRIPOS>MOLECULE
FG8
   32    33     1     0     0
SMALL
No Charge or Current Charge


@<TRIPOS>ATOM
      1 C1           3.7880    -0.1580    -0.1310 ce         1 FG8      -0.303200
      2 C2           2.4620    -0.1730     0.2020 cf         1 FG8      -0.076200
      3 C3           1.5200    -1.3190     0.2450 ca         1 FG8      -0.048800
      4 C4           1.8820    -2.5520    -0.3440 ca         1 FG8      -0.095000
      5 C5           1.0040    -3.6490    -0.3250 ca         1 FG8      -0.103000
      6 C6          -0.2530    -3.5320     0.2840 ca         1 FG8      -0.097000
      7 C7          -0.6290    -2.3170     0.8740 ca         1 FG8      -0.092000
      8 N            5.9570     0.8380    -0.5180 ns         1 FG8      -0.385400
      9 C            4.6370     1.0650    -0.1530 c          1 FG8       0.604300
     10 C8           0.2430    -1.2100     0.8570 ca         1 FG8      -0.102000
     11 C10         -1.8870     0.4520    -0.6430 ca         1 FG8      -0.069500
     12 C11         -3.0930     0.6730    -1.3300 ca         1 FG8      -0.108000
     13 C12         -4.2520     1.0260    -0.6180 ca         1 FG8       0.131000
     14 C13         -4.2070     1.1610     0.7790 ca         1 FG8      -0.108000
     15 C14         -3.0020     0.9400     1.4680 ca         1 FG8      -0.069500
     16 C9          -1.8400     0.5810     0.7590 ca         1 FG8      -0.131000
     17 O            4.2060     2.1770     0.1200 o          1 FG8      -0.567100
     18 O1           6.9670     1.8620    -0.3450 oh         1 FG8      -0.426100
     19 S           -0.3110     0.3040     1.6510 ss         1 FG8       0.065000
     20 H1           4.2900    -1.0840    -0.3960 ha         1 FG8       0.179000
     21 H2           2.0230     0.7920     0.4600 ha         1 FG8       0.217000
     22 H3           2.8430    -2.6720    -0.8350 ha         1 FG8       0.116000
     23 H4           1.2980    -4.5890    -0.7860 ha         1 FG8       0.118000
     24 H5          -0.9330    -4.3810     0.3000 ha         1 FG8       0.119000
     25 H6          -1.6050    -2.2330     1.3490 ha         1 FG8       0.127000
     26 H7           6.2960    -0.1200    -0.5910 hn         1 FG8       0.331500
     27 H8          -0.9920     0.1820    -1.2000 ha         1 FG8       0.130500
     28 H9          -3.1310     0.5710    -2.4110 ha         1 FG8       0.132500
     29 H10         -5.1050     1.4360     1.3260 ha         1 FG8       0.132500
     30 H11         -2.9710     1.0450     2.5510 ha         1 FG8       0.130500
     31 H12          7.4180     1.8930    -1.2220 ho         1 FG8       0.446000
     32 Cl          -5.7600     1.3010    -1.4790 cl         1 FG8      -0.197000
@<TRIPOS>BOND
     1     1     2 2   
     2     1     9 1   
     3     1    20 1   
     4     2     3 1   
     5     2    21 1   
     6     3     4 ar  
     7     3    10 ar  
     8     4     5 ar  
     9     4    22 1   
    10     5     6 ar  
    11     5    23 1   
    12     6     7 ar  
    13     6    24 1   
    14     7    10 ar  
    15     7    25 1   
    16     8     9 1   
    17     8    18 1   
    18     8    26 1   
    19     9    17 2   
    20    10    19 1   
    21    11    12 ar  
    22    11    16 ar  
    23    11    27 1   
    24    12    13 ar  
    25    12    28 1   
    26    13    14 ar  
    27    13    32 1   
    28    14    15 ar  
    29    14    29 1   
    30    15    16 ar  
    31    15    30 1   
    32    16    19 1   
    33    18    31 1   
@<TRIPOS>SUBSTRUCTURE
     1 FG8         1 TEMP              0 ****  ****    0 ROOT
