@<TRIPOS>MOLECULE
FG9
   47    50     1     0     0
SMALL
abcg2


@<TRIPOS>ATOM
      1 N           -3.3700     2.4580    -0.4560 nv         1 FG9      -1.054000
      2 C           -3.6820     1.1490    -0.1960 ca         1 FG9       0.312000
      3 C17         -2.6380     0.2080    -0.0670 ca         1 FG9       0.014000
      4 C7          -2.9410    -1.1590     0.1540 ca         1 FG9      -0.148000
      5 C6          -4.2480    -1.6130     0.2600 ca         1 FG9      -0.080000
      6 C5          -5.2810    -0.6930     0.1330 ca         1 FG9      -0.079000
      7 C4          -6.6450    -1.0900     0.2290 ca         1 FG9       0.362900
      8 N1          -7.6580    -0.2880     0.1030 nb         1 FG9      -0.659000
      9 C3          -7.3940     1.0250    -0.1430 ca         1 FG9       0.307900
     10 C2          -6.1390     1.5400    -0.2500 ca         1 FG9      -0.135000
     11 C1          -5.0080     0.6890    -0.1060 ca         1 FG9      -0.058000
     12 N5          -1.3600     0.6400    -0.1560 nb         1 FG9      -0.281000
     13 C9          -0.4040    -0.2510    -0.0360 ca         1 FG9       0.385900
     14 N2          -0.5860    -1.5950     0.1700 nb         1 FG9      -0.211000
     15 C8          -1.8060    -2.0120     0.2610 ca         1 FG9       0.167900
     16 N3           0.8720     0.1590    -0.1100 nu         1 FG9      -0.929100
     17 C10          2.0260    -0.7140    -0.1000 c3         1 FG9       0.243800
     18 C11          3.3020     0.1150    -0.1220 c3         1 FG9      -0.100400
     19 C12          4.5290    -0.7860    -0.1200 c3         1 FG9       0.171800
     20 N4           5.7750    -0.0620    -0.2850 n3         1 FG9      -0.715600
     21 C16          6.1040     0.7690     0.8600 c6         1 FG9       0.125800
     22 C15          7.4080     1.5050     0.6130 c6         1 FG9       0.153100
     23 O            8.4690     0.6210     0.3280 os         1 FG9      -0.448000
     24 C14          8.1570    -0.1910    -0.7820 c6         1 FG9       0.153100
     25 C13          6.8750    -0.9690    -0.5580 c6         1 FG9       0.125800
     26 H1          -3.9980     3.1610    -0.1010 hn         1 FG9       0.465500
     27 H2          -2.4010     2.6880    -0.2950 hn         1 FG9       0.465500
     28 H3          -4.4560    -2.6620     0.4370 ha         1 FG9       0.121000
     29 H4          -6.8600    -2.1380     0.4210 h4         1 FG9       0.016100
     30 H5          -8.2580     1.6670    -0.2570 h4         1 FG9       0.017100
     31 H6          -6.0260     2.5960    -0.4550 ha         1 FG9       0.117000
     32 H7          -1.9590    -3.0750     0.4240 h4         1 FG9       0.023100
     33 H8           1.0120     1.1330    -0.3270 hn         1 FG9       0.502000
     34 H9           2.0100    -1.3420     0.7940 h1         1 FG9       0.050700
     35 H10          2.0090    -1.3890    -0.9610 h1         1 FG9       0.050700
     36 H11          3.3220     0.7440    -1.0170 hc         1 FG9       0.053700
     37 H12          3.3040     0.7830     0.7430 hc         1 FG9       0.053700
     38 H13          4.5350    -1.3980     0.7990 h1         1 FG9       0.034700
     39 H14          4.4440    -1.4880    -0.9550 h1         1 FG9       0.034700
     40 H16          5.3250     1.5160     1.0200 h1         1 FG9       0.040950
     41 H17          6.1780     0.1730     1.7860 h1         1 FG9       0.040950
     42 H18          7.2680     2.2150    -0.2150 h1         1 FG9       0.051200
     43 H19          7.6880     2.0760     1.5000 h1         1 FG9       0.051200
     44 H20          8.0590     0.4200    -1.6910 h1         1 FG9       0.051200
     45 H21          8.9910    -0.8790    -0.9290 h1         1 FG9       0.051200
     46 H22          7.0240    -1.6920     0.2640 h1         1 FG9       0.040950
     47 H23          6.6520    -1.5500    -1.4570 h1         1 FG9       0.040950
@<TRIPOS>BOND
     1     1     2 1   
     2     1    26 1   
     3     1    27 1   
     4     2     3 ar  
     5     2    11 ar  
     6     3     4 ar  
     7     3    12 ar  
     8     4     5 ar  
     9     4    15 ar  
    10     5     6 ar  
    11     5    28 1   
    12     6     7 ar  
    13     6    11 ar  
    14     7     8 ar  
    15     7    29 1   
    16     8     9 ar  
    17     9    10 ar  
    18     9    30 1   
    19    10    11 ar  
    20    10    31 1   
    21    12    13 ar  
    22    13    14 ar  
    23    13    16 1   
    24    14    15 ar  
    25    15    32 1   
    26    16    17 1   
    27    16    33 1   
    28    17    18 1   
    29    17    34 1   
    30    17    35 1   
    31    18    19 1   
    32    18    36 1   
    33    18    37 1   
    34    19    20 1   
    35    19    38 1   
    36    19    39 1   
    37    20    21 1   
    38    20    25 1   
    39    21    22 1   
    40    21    40 1   
    41    21    41 1   
    42    22    23 1   
    43    22    42 1   
    44    22    43 1   
    45    23    24 1   
    46    24    25 1   
    47    24    44 1   
    48    24    45 1   
    49    25    46 1   
    50    25    47 1   
@<TRIPOS>SUBSTRUCTURE
     1 FG9         1 TEMP              0 ****  ****    0 ROOT
