@<TRIPOS>MOLECULE
FG9
   47    50     1     0     0
SMALL
No Charge or Current Charge


@<TRIPOS>ATOM
      1 N           -3.4060     2.4860    -0.2270 nv         1 FG9      -1.054000
      2 C           -3.7340     1.1450    -0.1170 ca         1 FG9       0.312000
      3 C17         -2.6950     0.1740    -0.0530 ca         1 FG9       0.014000
      4 C7          -3.0400    -1.1950     0.0650 ca         1 FG9      -0.148000
      5 C6          -4.3830    -1.6010     0.1200 ca         1 FG9      -0.080000
      6 C5          -5.4070    -0.6420     0.0570 ca         1 FG9      -0.079000
      7 C4          -6.7600    -1.0380     0.1100 ca         1 FG9       0.362900
      8 N1          -7.7930    -0.1650     0.0500 nb         1 FG9      -0.659000
      9 C3          -7.4940     1.1480    -0.0670 ca         1 FG9       0.307900
     10 C2          -6.1770     1.6360    -0.1270 ca         1 FG9      -0.135000
     11 C1          -5.0920     0.7300    -0.0630 ca         1 FG9      -0.058000
     12 N5          -1.3820     0.5220    -0.1000 nb         1 FG9      -0.281000
     13 C9          -0.4680    -0.4610    -0.0320 ca         1 FG9       0.385900
     14 N2          -0.7080    -1.7790     0.0790 nb         1 FG9      -0.211000
     15 C8          -2.0010    -2.1440     0.1280 ca         1 FG9       0.167900
     16 N3           0.8520    -0.0400    -0.0850 nu         1 FG9      -0.929100
     17 C10          2.0600    -0.8800    -0.0410 c3         1 FG9       0.243800
     18 C11          3.3280    -0.0100    -0.1220 c3         1 FG9      -0.100400
     19 C12          4.6180    -0.8570    -0.0770 c3         1 FG9       0.171800
     20 N4           5.8690    -0.0920    -0.3030 n3         1 FG9      -0.715600
     21 C16          6.1480     0.9510     0.7400 c6         1 FG9       0.125800
     22 C15          7.4770     1.7150     0.4570 c6         1 FG9       0.153100
     23 O            8.5770     0.7840     0.3240 os         1 FG9      -0.448000
     24 C14          8.3640    -0.1810    -0.7330 c6         1 FG9       0.153100
     25 C13          7.0570    -0.9880    -0.4720 c6         1 FG9       0.125800
     26 H1          -4.1070     3.1950    -0.0300 hn         1 FG9       0.465500
     27 H2          -2.4300     2.7540    -0.1220 hn         1 FG9       0.465500
     28 H3          -4.6310    -2.6570     0.2120 ha         1 FG9       0.121000
     29 H4          -7.0280    -2.0900     0.2020 h4         1 FG9       0.016100
     30 H5          -8.3400     1.8330    -0.1150 h4         1 FG9       0.017100
     31 H6          -6.0260     2.7060    -0.2250 ha         1 FG9       0.117000
     32 H7          -2.2060    -3.2100     0.2190 h4         1 FG9       0.023100
     33 H8           0.9790     0.9680    -0.1760 hn         1 FG9       0.502000
     34 H9           2.0800    -1.4610     0.8920 h1         1 FG9       0.050700
     35 H10          2.0540    -1.5900    -0.8800 h1         1 FG9       0.050700
     36 H11          3.3120     0.5690    -1.0530 hc         1 FG9       0.053700
     37 H12          3.3220     0.7010     0.7120 hc         1 FG9       0.053700
     38 H13          4.6660    -1.3770     0.8900 h1         1 FG9       0.034700
     39 H14          4.5310    -1.6320    -0.8510 h1         1 FG9       0.034700
     40 H16          5.3350     1.6900     0.7800 h1         1 FG9       0.040950
     41 H17          6.2130     0.4880     1.7350 h1         1 FG9       0.040950
     42 H18          7.3830     2.3000    -0.4690 h1         1 FG9       0.051200
     43 H19          7.6910     2.4110     1.2810 h1         1 FG9       0.051200
     44 H20          8.2940     0.3450    -1.6970 h1         1 FG9       0.051200
     45 H21          9.2230    -0.8640    -0.7770 h1         1 FG9       0.051200
     46 H22          7.2000    -1.6050     0.4270 h1         1 FG9       0.040950
     47 H23          6.8970    -1.6780    -1.3130 h1         1 FG9       0.040950
@<TRIPOS>BOND
     1     1     2 1   
     2     1    26 1   
     3     1    27 1   
     4     2     3 ar  
     5     2    11 ar  
     6     3     4 ar  
     7     3    12 ar  
     8     4     5 ar  
     9     4    15 ar  
    10     5     6 ar  
    11     5    28 1   
    12     6     7 ar  
    13     6    11 ar  
    14     7     8 ar  
    15     7    29 1   
    16     8     9 ar  
    17     9    10 ar  
    18     9    30 1   
    19    10    11 ar  
    20    10    31 1   
    21    12    13 ar  
    22    13    14 ar  
    23    13    16 1   
    24    14    15 ar  
    25    15    32 1   
    26    16    17 1   
    27    16    33 1   
    28    17    18 1   
    29    17    34 1   
    30    17    35 1   
    31    18    19 1   
    32    18    36 1   
    33    18    37 1   
    34    19    20 1   
    35    19    38 1   
    36    19    39 1   
    37    20    21 1   
    38    20    25 1   
    39    21    22 1   
    40    21    40 1   
    41    21    41 1   
    42    22    23 1   
    43    22    42 1   
    44    22    43 1   
    45    23    24 1   
    46    24    25 1   
    47    24    44 1   
    48    24    45 1   
    49    25    46 1   
    50    25    47 1   
@<TRIPOS>SUBSTRUCTURE
     1 FG9         1 TEMP              0 ****  ****    0 ROOT
