@<TRIPOS>MOLECULE
FGD
   51    53     1     0     0
SMALL
No Charge or Current Charge


@<TRIPOS>ATOM
      1 C13         -1.5340    -1.0980    -1.5930 ca         1 FGD      -0.036500
      2 C15         -1.8560    -0.5460     0.7510 ca         1 FGD      -0.036500
      3 C17          0.4010    -0.7400    -0.1570 ca         1 FGD       0.293000
      4 C20          4.0400    -0.5140     0.9090 ca         1 FGD      -0.128300
      5 C21          4.7270     0.6530     0.5220 ca         1 FGD      -0.014000
      6 C22          6.1080     0.5930     0.2420 ca         1 FGD      -0.226600
      7 C24          6.1210    -1.7720     0.7270 ca         1 FGD      -0.182000
      8 C02         -6.7440    -1.4050     1.6140 c          1 FGD       0.718000
      9 C04         -6.1990    -0.6650     0.3530 c3         1 FGD      -0.046300
     10 C05         -6.7640     0.7780     0.2610 c3         1 FGD      -0.057400
     11 C06         -6.3940     1.5400    -1.0380 c3         1 FGD      -0.202400
     12 C07         -7.1000     2.9090    -1.0700 c          1 FGD       0.712000
     13 C12         -2.4130    -0.8520    -0.5150 ca         1 FGD      -0.140600
     14 C14         -0.1410    -1.0420    -1.4120 ca         1 FGD      -0.202000
     15 C16         -0.4610    -0.4920     0.9230 ca         1 FGD      -0.202000
     16 C19          2.5520    -0.4610     1.2150 c3         1 FGD       0.267100
     17 C23          6.7980    -0.6050     0.3440 ca         1 FGD       0.311000
     18 C25          4.7440    -1.7300     1.0100 ca         1 FGD      -0.031000
     19 C27          8.8100     0.4480    -0.2790 cc         1 FGD       0.906100
     20 C30          6.8920     1.7730    -0.1680 c          1 FGD       0.738100
     21 N10         -4.7150    -0.6870     0.3530 ns         1 FGD      -0.424900
     22 N18          1.7850    -0.6940    -0.0150 nu         1 FGD      -0.970200
     23 N26          8.1470    -0.6580     0.0660 na         1 FGD      -0.932200
     24 N28         10.0760     0.3100    -0.4970 nv         1 FGD      -1.069200
     25 N29          8.2460     1.5930    -0.4020 nd         1 FGD      -0.802100
     26 O08         -8.2180     2.9720    -1.5590 o          1 FGD      -0.761000
     27 O09         -6.5340     3.8640    -0.5610 o          1 FGD      -0.761000
     28 O31          6.4020     2.8830    -0.3040 o          1 FGD      -0.558100
     29 O32         -4.3840    -1.1790    -1.8460 o          1 FGD      -0.645100
     30 H131        -1.9280    -1.3340    -2.5800 ha         1 FGD       0.128000
     31 H151        -2.4860    -0.3460     1.6140 ha         1 FGD       0.128000
     32 H211         4.1900     1.5960     0.4370 ha         1 FGD       0.145000
     33 H241         6.6580    -2.7130     0.8060 ha         1 FGD       0.111000
     34 H041        -6.5560    -1.2280    -0.5190 h1         1 FGD       0.055700
     35 H052        -7.8580     0.7240     0.3360 hc         1 FGD       0.050200
     36 H051        -6.4230     1.3570     1.1290 hc         1 FGD       0.050200
     37 H061        -5.3060     1.6740    -1.0150 hc         1 FGD       0.010200
     38 H062        -6.7440     0.9090    -1.8650 hc         1 FGD       0.010200
     39 H141         0.5150    -1.2350    -2.2560 ha         1 FGD       0.094000
     40 H161        -0.0610    -0.2550     1.9050 ha         1 FGD       0.094000
     41 H192         2.3040    -1.2240     1.9670 h1         1 FGD       0.047700
     42 H191         2.2990     0.5200     1.6410 h1         1 FGD       0.047700
     43 H251         4.2250    -2.6400     1.3040 ha         1 FGD       0.134000
     44 H101        -4.2480    -0.5140     1.2330 hn         1 FGD       0.293500
     45 H181         2.3270    -0.8900    -0.8560 hn         1 FGD       0.461000
     46 H261         8.6440    -1.5350     0.0690 hn         1 FGD       0.494000
     47 H281        10.5320    -0.3220     0.1430 hn         1 FGD       0.503500
     48 H283        10.5360     1.2040    -0.5910 hn         1 FGD       0.503500
     49 C11         -3.9100    -0.9210    -0.7450 c          1 FGD       0.605700
     50 O01         -6.2820    -1.1120     2.7090 o          1 FGD      -0.742500
     51 O03         -7.5470    -2.3130     1.4500 o          1 FGD      -0.742500
@<TRIPOS>BOND
     1     1    13 ar  
     2     1    14 ar  
     3     1    30 1   
     4     2    13 ar  
     5     2    15 ar  
     6     2    31 1   
     7     3    14 ar  
     8     3    15 ar  
     9     3    22 1   
    10     4     5 ar  
    11     4    16 1   
    12     4    18 ar  
    13     5     6 ar  
    14     5    32 1   
    15     6    17 ar  
    16     6    20 1   
    17     7    17 ar  
    18     7    18 ar  
    19     7    33 1   
    20     8     9 1   
    21     8    50 1   
    22     8    51 1   
    23     9    10 1   
    24     9    21 1   
    25     9    34 1   
    26    10    11 1   
    27    10    35 1   
    28    10    36 1   
    29    11    12 1   
    30    11    37 1   
    31    11    38 1   
    32    12    26 1   
    33    12    27 1   
    34    13    49 1   
    35    14    39 1   
    36    15    40 1   
    37    16    22 1   
    38    16    41 1   
    39    16    42 1   
    40    17    23 1   
    41    18    43 1   
    42    19    23 1   
    43    19    24 1   
    44    19    25 2   
    45    20    25 1   
    46    20    28 2   
    47    21    44 1   
    48    21    49 1   
    49    22    45 1   
    50    23    46 1   
    51    24    47 1   
    52    24    48 1   
    53    29    49 2   
@<TRIPOS>SUBSTRUCTURE
     1 FGD         1 TEMP              0 ****  ****    0 ROOT
