@<TRIPOS>MOLECULE
FGD
   51    53     1     0     0
SMALL
bcc


@<TRIPOS>ATOM
      1 C13         -1.5120    -1.6150    -1.5760 ca         1 FGD      -0.054500
      2 C15         -1.7990    -0.4420     0.4790 ca         1 FGD      -0.054500
      3 C17          0.4350    -0.8460    -0.3590 ca         1 FGD       0.154600
      4 C20          3.9440    -0.1180     0.6390 ca         1 FGD      -0.128300
      5 C21          4.8000     0.8520     0.1550 ca         1 FGD      -0.032000
      6 C22          6.1800     0.6450     0.1200 ca         1 FGD      -0.226600
      7 C24          5.8450    -1.5620     1.0570 ca         1 FGD      -0.200000
      8 C02         -6.4290    -1.8640     0.8420 c          1 FGD       0.928600
      9 C04         -6.0730    -0.6330    -0.0330 c3         1 FGD      -0.046300
     10 C05         -6.7430     0.6290     0.5110 c3         1 FGD      -0.057400
     11 C06         -6.5720     1.8440    -0.3880 c3         1 FGD      -0.202400
     12 C07         -7.3320     3.1090     0.0500 c          1 FGD       0.922600
     13 C12         -2.3760    -1.0820    -0.6150 ca         1 FGD      -0.140600
     14 C14         -0.1450    -1.4960    -1.4630 ca         1 FGD      -0.220000
     15 C16         -0.4270    -0.3170     0.6120 ca         1 FGD      -0.220000
     16 C19          2.4590     0.1030     0.6820 c3         1 FGD       0.267100
     17 C23          6.6950    -0.5650     0.5750 ca         1 FGD       0.172600
     18 C25          4.4870    -1.3310     1.0830 ca         1 FGD      -0.049000
     19 C27          8.8740     0.2330     0.0800 cc         1 FGD       0.906100
     20 C30          7.1140     1.6720    -0.3840 c          1 FGD       0.738100
     21 N10         -4.6480    -0.4200    -0.1360 ns         1 FGD      -0.491900
     22 N18          1.7960    -0.7790    -0.2520 nu         1 FGD      -0.776600
     23 N26          8.0570    -0.7440     0.5380 na         1 FGD      -0.738600
     24 N28         10.1830    -0.0210     0.0800 nv         1 FGD      -0.958800
     25 N29          8.4430     1.3890    -0.3650 nd         1 FGD      -0.802100
     26 O08         -8.1120     3.0170     1.0190 o          1 FGD      -0.866300
     27 O09         -7.1090     4.1380    -0.6220 o          1 FGD      -0.866300
     28 O31          6.7020     2.7480    -0.8030 o          1 FGD      -0.558100
     29 O32         -4.2770    -2.1180    -1.5670 o          1 FGD      -0.645100
     30 H131        -1.9240    -2.1240    -2.4380 ha         1 FGD       0.146000
     31 H151        -2.4100    -0.0330     1.2750 ha         1 FGD       0.146000
     32 H211         4.4050     1.7940    -0.2030 ha         1 FGD       0.163000
     33 H241         6.2510    -2.5010     1.4130 ha         1 FGD       0.129000
     34 H041        -6.4650    -0.8140    -1.0380 h1         1 FGD       0.055700
     35 H052        -7.8030     0.4140     0.6380 hc         1 FGD       0.050200
     36 H051        -6.3540     0.8420     1.5140 hc         1 FGD       0.050200
     37 H061        -5.5140     2.1010    -0.4940 hc         1 FGD       0.010200
     38 H062        -6.9010     1.5880    -1.4030 hc         1 FGD       0.010200
     39 H141         0.4940    -1.9130    -2.2320 ha         1 FGD       0.112000
     40 H161        -0.0360     0.1870     1.4860 ha         1 FGD       0.112000
     41 H192         2.0970    -0.1100     1.6920 h1         1 FGD       0.047700
     42 H191         2.2330     1.1580     0.4820 h1         1 FGD       0.047700
     43 H251         3.8300    -2.1040     1.4640 ha         1 FGD       0.152000
     44 H101        -4.2390     0.2320     0.5120 hn         1 FGD       0.293500
     45 H181         2.3030    -0.9550    -1.1050 hn         1 FGD       0.405800
     46 H261         8.4460    -1.6140     0.8710 hn         1 FGD       0.438800
     47 H281        10.5730    -0.8540     0.4850 hn         1 FGD       0.448300
     48 H283        10.8170     0.7090    -0.1950 hn         1 FGD       0.448300
     49 C11         -3.8420    -1.2620    -0.8000 c          1 FGD       0.672700
     50 O01         -5.5230    -2.3790     1.5190 o          1 FGD      -0.847800
     51 O03         -7.6260    -2.2130     0.7930 o          1 FGD      -0.847800
@<TRIPOS>BOND
     1     1    13 ar  
     2     1    14 ar  
     3     1    30 1   
     4     2    13 ar  
     5     2    15 ar  
     6     2    31 1   
     7     3    14 ar  
     8     3    15 ar  
     9     3    22 1   
    10     4     5 ar  
    11     4    16 1   
    12     4    18 ar  
    13     5     6 ar  
    14     5    32 1   
    15     6    17 ar  
    16     6    20 1   
    17     7    17 ar  
    18     7    18 ar  
    19     7    33 1   
    20     8     9 1   
    21     8    50 1   
    22     8    51 1   
    23     9    10 1   
    24     9    21 1   
    25     9    34 1   
    26    10    11 1   
    27    10    35 1   
    28    10    36 1   
    29    11    12 1   
    30    11    37 1   
    31    11    38 1   
    32    12    26 1   
    33    12    27 1   
    34    13    49 1   
    35    14    39 1   
    36    15    40 1   
    37    16    22 1   
    38    16    41 1   
    39    16    42 1   
    40    17    23 1   
    41    18    43 1   
    42    19    23 1   
    43    19    24 1   
    44    19    25 2   
    45    20    25 1   
    46    20    28 2   
    47    21    44 1   
    48    21    49 1   
    49    22    45 1   
    50    23    46 1   
    51    24    47 1   
    52    24    48 1   
    53    29    49 2   
@<TRIPOS>SUBSTRUCTURE
     1 FGD         1 TEMP              0 ****  ****    0 ROOT
