@<TRIPOS>MOLECULE
FGF
   67    70     1     0     0
SMALL
No Charge or Current Charge


@<TRIPOS>ATOM
      1 O            5.2710     2.0120     1.1940 o          1 FGF      -0.560000
      2 C            6.1180     1.2520     0.7400 c          1 FGF       0.568000
      3 CA           7.2450     0.6770     1.6490 c6         1 FGF       0.077800
      4 N            8.4680     0.1630     0.9480 n3         1 FGF      -0.707600
      5 CAT          9.4310    -0.4740     1.8730 c3         1 FGF       0.151100
      6 CAP          8.0640    -0.7230    -0.1730 c6         1 FGF       0.145800
      7 CAO          7.1850     0.0260    -1.2130 c6         1 FGF       0.108000
      8 NAN          6.0970     0.8520    -0.6180 n          1 FGF      -0.410800
      9 CAM          5.0220     1.3250    -1.5200 c3         1 FGF       0.148300
     10 CAA          3.7140     0.5240    -1.4630 ca         1 FGF      -0.138300
     11 CAB          3.6650    -0.7200    -0.7920 ca         1 FGF      -0.056000
     12 CAF          2.5310     0.9970    -2.1040 ca         1 FGF       0.290500
     13 CAL          2.5260     2.3100    -2.8890 c          1 FGF       0.469400
     14 OAV          1.5340     2.7980    -3.4270 o          1 FGF      -0.466100
     15 NAE          1.3620     0.2960    -2.0510 nb         1 FGF      -0.652000
     16 CAD          1.3300    -0.8660    -1.3740 ca         1 FGF       0.500900
     17 CAC          2.4560    -1.4280    -0.7480 ca         1 FGF      -0.142300
     18 CAG          2.4040    -2.8480    -0.1510 c6         1 FGF      -0.024100
     19 CAH          1.0430    -3.5870    -0.3530 c6         1 FGF      -0.097400
     20 CAI          0.2230    -3.0060    -1.5310 c6         1 FGF       0.109000
     21 NAJ          0.0960    -1.5530    -1.2840 n          1 FGF      -0.435300
     22 CAK         -1.0830    -0.9380    -0.8180 c          1 FGF       0.690100
     23 OAX         -1.1020     0.2230    -0.4380 o          1 FGF      -0.548100
     24 NAW         -2.2000    -1.7360    -0.7840 ns         1 FGF      -0.331900
     25 CAY         -3.5090    -1.4570    -0.3970 ca         1 FGF       0.547900
     26 CAZ         -4.0750    -0.1860    -0.2820 ca         1 FGF      -0.290000
     27 NBD         -4.1870    -2.5890    -0.1630 nb         1 FGF      -0.783000
     28 CBC         -5.4780    -2.4790     0.2150 ca         1 FGF       0.457900
     29 CBB         -6.1270    -1.2520     0.3660 ca         1 FGF      -0.219000
     30 CBE         -7.4960    -1.2430     0.7700 cg         1 FGF       0.343000
     31 NBF         -8.6160    -1.2230     1.0960 n1         1 FGF      -0.480000
     32 CBA         -5.4070    -0.0800     0.1130 ca         1 FGF       0.437000
     33 NBG         -5.9970     1.1790     0.2340 nu         1 FGF      -0.947200
     34 CBH         -5.3210     2.4310     0.6400 c3         1 FGF       0.220800
     35 CBI         -6.3280     3.6050     0.7590 c3         1 FGF       0.138600
     36 OBJ         -7.4160     3.2060     1.6220 os         1 FGF      -0.463000
     37 CBK         -8.4260     4.2110     1.8120 c3         1 FGF       0.145900
     38 H1           7.5140     1.4720     2.3600 h1         1 FGF       0.066200
     39 H2           6.7710    -0.1310     2.2240 h1         1 FGF       0.066200
     40 H4           8.9910    -1.3590     2.3520 h1         1 FGF       0.037033
     41 H5          10.3350    -0.7890     1.3340 h1         1 FGF       0.037033
     42 H6           9.7350     0.2290     2.6600 h1         1 FGF       0.037033
     43 H7           8.9490    -1.1250    -0.6880 h1         1 FGF       0.044200
     44 H8           7.4980    -1.5840     0.2120 h1         1 FGF       0.044200
     45 H9           7.8340     0.6910    -1.8000 h1         1 FGF       0.052200
     46 H10          6.7530    -0.7050    -1.9100 h1         1 FGF       0.052200
     47 H11          4.8160     2.3760    -1.2770 h1         1 FGF       0.071200
     48 H12          5.3980     1.3070    -2.5520 h1         1 FGF       0.071200
     49 H13          4.5490    -1.1500    -0.3280 ha         1 FGF       0.123000
     50 H14          3.5000     2.8390    -2.9700 h4         1 FGF      -0.008800
     51 H17          3.1980    -3.4460    -0.6200 hc         1 FGF       0.055700
     52 H18          2.6500    -2.8130     0.9190 hc         1 FGF       0.055700
     53 H19          1.2130    -4.6620    -0.5020 hc         1 FGF       0.060200
     54 H20          0.4470    -3.4970     0.5660 hc         1 FGF       0.060200
     55 H21          0.7640    -3.1690    -2.4750 h1         1 FGF       0.056200
     56 H22         -0.7440    -3.5190    -1.6160 h1         1 FGF       0.056200
     57 H23         -2.0610    -2.6930    -1.0680 hn         1 FGF       0.171000
     58 H24         -3.5020     0.7010    -0.5130 ha         1 FGF       0.160000
     59 H25         -6.0030    -3.4160     0.4000 h4         1 FGF       0.025100
     60 H26         -6.9910     1.1580     0.4760 hn         1 FGF       0.513000
     61 H27         -4.8270     2.2930     1.6120 h1         1 FGF       0.061700
     62 H28         -4.5480     2.7080    -0.0900 h1         1 FGF       0.061700
     63 H29         -5.8100     4.4850     1.1620 h1         1 FGF       0.038200
     64 H30         -6.7040     3.8570    -0.2420 h1         1 FGF       0.038200
     65 H31         -7.9970     5.1140     2.2660 h1         1 FGF       0.032700
     66 H32         -8.8870     4.4880     0.8550 h1         1 FGF       0.032700
     67 H33         -9.2160     3.8380     2.4760 h1         1 FGF       0.032700
@<TRIPOS>BOND
     1     1     2 2   
     2     2     3 1   
     3     2     8 1   
     4     3     4 1   
     5     3    38 1   
     6     3    39 1   
     7     4     5 1   
     8     4     6 1   
     9     5    40 1   
    10     5    41 1   
    11     5    42 1   
    12     6     7 1   
    13     6    43 1   
    14     6    44 1   
    15     7     8 1   
    16     7    45 1   
    17     7    46 1   
    18     8     9 1   
    19     9    10 1   
    20     9    47 1   
    21     9    48 1   
    22    10    11 ar  
    23    10    12 ar  
    24    11    17 ar  
    25    11    49 1   
    26    12    13 1   
    27    12    15 ar  
    28    13    14 2   
    29    13    50 1   
    30    15    16 ar  
    31    16    17 ar  
    32    16    21 1   
    33    17    18 1   
    34    18    19 1   
    35    18    51 1   
    36    18    52 1   
    37    19    20 1   
    38    19    53 1   
    39    19    54 1   
    40    20    21 1   
    41    20    55 1   
    42    20    56 1   
    43    21    22 1   
    44    22    23 2   
    45    22    24 1   
    46    24    25 1   
    47    24    57 1   
    48    25    26 ar  
    49    25    27 ar  
    50    26    32 ar  
    51    26    58 1   
    52    27    28 ar  
    53    28    29 ar  
    54    28    59 1   
    55    29    30 1   
    56    29    32 ar  
    57    30    31 3   
    58    32    33 1   
    59    33    34 1   
    60    33    60 1   
    61    34    35 1   
    62    34    61 1   
    63    34    62 1   
    64    35    36 1   
    65    35    63 1   
    66    35    64 1   
    67    36    37 1   
    68    37    65 1   
    69    37    66 1   
    70    37    67 1   
@<TRIPOS>SUBSTRUCTURE
     1 FGF         1 TEMP              0 ****  ****    0 ROOT
