@<TRIPOS>MOLECULE
FGF
   67    70     1     0     0
SMALL
abcg2


@<TRIPOS>ATOM
      1 O            6.3160     1.7670     1.5450 o          1 FGF      -0.560000
      2 C            6.7510     1.0550     0.6490 c          1 FGF       0.568000
      3 CA           8.0460     0.2990     0.8550 c6         1 FGF       0.077800
      4 N            8.6300    -0.2420    -0.3480 n3         1 FGF      -0.707600
      5 CAT          9.7880    -1.0530    -0.0450 c3         1 FGF       0.151100
      6 CAP          7.6230    -0.9580    -1.0970 c6         1 FGF       0.145800
      7 CAO          6.5970     0.0320    -1.5960 c6         1 FGF       0.108000
      8 NAN          6.1000     0.8730    -0.5180 n          1 FGF      -0.410800
      9 CAM          4.8840     1.6010    -0.7930 c3         1 FGF       0.148300
     10 CAA          3.6350     0.7710    -0.5790 ca         1 FGF      -0.138300
     11 CAB          3.6710    -0.4100     0.1530 ca         1 FGF      -0.056000
     12 CAF          2.3840     1.1430    -1.0730 ca         1 FGF       0.290500
     13 CAL          2.2070     2.3870    -1.8620 c          1 FGF       0.469400
     14 OAV          1.1440     2.7560    -2.2950 o          1 FGF      -0.466100
     15 NAE          1.2820     0.4260    -0.8820 nb         1 FGF      -0.652000
     16 CAD          1.3300    -0.6750    -0.1670 ca         1 FGF       0.500900
     17 CAC          2.5330    -1.1590     0.3830 ca         1 FGF      -0.142300
     18 CAG          2.5980    -2.4420     1.1570 c6         1 FGF      -0.024100
     19 CAH          1.2180    -2.9150     1.5740 c6         1 FGF      -0.097400
     20 CAI          0.2540    -2.8010     0.4070 c6         1 FGF       0.109000
     21 NAJ          0.1480    -1.4020    -0.0150 n          1 FGF      -0.435300
     22 CAK         -1.0830    -0.7640    -0.1180 c          1 FGF       0.690100
     23 OAX         -1.2740     0.3840     0.2130 o          1 FGF      -0.548100
     24 NAW         -2.0580    -1.5820    -0.6300 ns         1 FGF      -0.331900
     25 CAY         -3.4190    -1.3570    -0.7310 ca         1 FGF       0.547900
     26 CAZ         -4.0540    -0.2000    -0.3090 ca         1 FGF      -0.290000
     27 NBD         -4.0530    -2.4010    -1.2850 nb         1 FGF      -0.783000
     28 CBC         -5.3560    -2.3130    -1.4260 ca         1 FGF       0.457900
     29 CBB         -6.1090    -1.2090    -1.0420 ca         1 FGF      -0.219000
     30 CBE         -7.5100    -1.1970    -1.2400 cg         1 FGF       0.343000
     31 NBF         -8.6540    -1.1680    -1.3940 n1         1 FGF      -0.480000
     32 CBA         -5.4440    -0.0950    -0.4650 ca         1 FGF       0.437000
     33 NBG         -6.1220     1.0030    -0.1080 nu         1 FGF      -0.947200
     34 CBH         -5.5300     2.1590     0.5280 c3         1 FGF       0.220800
     35 CBI         -6.5000     3.3180     0.5060 c3         1 FGF       0.138600
     36 OBJ         -7.6680     2.9470     1.1930 os         1 FGF      -0.463000
     37 CBK         -8.6640     3.9390     1.1510 c3         1 FGF       0.145900
     38 H1           8.7480     0.9870     1.3320 h1         1 FGF       0.066200
     39 H2           7.8280    -0.4860     1.6030 h1         1 FGF       0.066200
     40 H4           9.5520    -1.9240     0.5840 h1         1 FGF       0.037033
     41 H5          10.2390    -1.4160    -0.9690 h1         1 FGF       0.037033
     42 H6          10.5330    -0.4550     0.4810 h1         1 FGF       0.037033
     43 H7           8.0820    -1.4430    -1.9600 h1         1 FGF       0.044200
     44 H8           7.1380    -1.7470    -0.4980 h1         1 FGF       0.044200
     45 H9           7.0350     0.6600    -2.3770 h1         1 FGF       0.052200
     46 H10          5.7550    -0.5020    -2.0390 h1         1 FGF       0.052200
     47 H11          4.8500     2.4880    -0.1600 h1         1 FGF       0.071200
     48 H12          4.9390     1.9510    -1.8260 h1         1 FGF       0.071200
     49 H13          4.6090    -0.7680     0.5600 ha         1 FGF       0.123000
     50 H14          3.1170     2.9810    -2.0360 h4         1 FGF      -0.008800
     51 H17          3.0740    -3.2010     0.5290 hc         1 FGF       0.055700
     52 H18          3.2470    -2.3160     2.0260 hc         1 FGF       0.055700
     53 H19          1.2570    -3.9520     1.9080 hc         1 FGF       0.060200
     54 H20          0.8420    -2.3200     2.4100 hc         1 FGF       0.060200
     55 H21          0.5880    -3.4230    -0.4290 h1         1 FGF       0.056200
     56 H22         -0.7270    -3.1550     0.7130 h1         1 FGF       0.056200
     57 H23         -1.7810    -2.4660    -1.0330 hn         1 FGF       0.171000
     58 H24         -3.4910     0.6050     0.1300 ha         1 FGF       0.160000
     59 H25         -5.8570    -3.1650    -1.8730 h4         1 FGF       0.025100
     60 H26         -7.1300     0.9630    -0.1070 hn         1 FGF       0.513000
     61 H27         -5.2260     1.9330     1.5550 h1         1 FGF       0.061700
     62 H28         -4.6360     2.4680    -0.0170 h1         1 FGF       0.061700
     63 H29         -6.0200     4.1880     0.9730 h1         1 FGF       0.038200
     64 H30         -6.7270     3.5900    -0.5340 h1         1 FGF       0.038200
     65 H31         -8.3340     4.8710     1.6240 h1         1 FGF       0.032700
     66 H32         -8.9690     4.1700     0.1230 h1         1 FGF       0.032700
     67 H33         -9.5320     3.5670     1.6930 h1         1 FGF       0.032700
@<TRIPOS>BOND
     1     1     2 2   
     2     2     3 1   
     3     2     8 1   
     4     3     4 1   
     5     3    38 1   
     6     3    39 1   
     7     4     5 1   
     8     4     6 1   
     9     5    40 1   
    10     5    41 1   
    11     5    42 1   
    12     6     7 1   
    13     6    43 1   
    14     6    44 1   
    15     7     8 1   
    16     7    45 1   
    17     7    46 1   
    18     8     9 1   
    19     9    10 1   
    20     9    47 1   
    21     9    48 1   
    22    10    11 ar  
    23    10    12 ar  
    24    11    17 ar  
    25    11    49 1   
    26    12    13 1   
    27    12    15 ar  
    28    13    14 2   
    29    13    50 1   
    30    15    16 ar  
    31    16    17 ar  
    32    16    21 1   
    33    17    18 1   
    34    18    19 1   
    35    18    51 1   
    36    18    52 1   
    37    19    20 1   
    38    19    53 1   
    39    19    54 1   
    40    20    21 1   
    41    20    55 1   
    42    20    56 1   
    43    21    22 1   
    44    22    23 2   
    45    22    24 1   
    46    24    25 1   
    47    24    57 1   
    48    25    26 ar  
    49    25    27 ar  
    50    26    32 ar  
    51    26    58 1   
    52    27    28 ar  
    53    28    29 ar  
    54    28    59 1   
    55    29    30 1   
    56    29    32 ar  
    57    30    31 3   
    58    32    33 1   
    59    33    34 1   
    60    33    60 1   
    61    34    35 1   
    62    34    61 1   
    63    34    62 1   
    64    35    36 1   
    65    35    63 1   
    66    35    64 1   
    67    36    37 1   
    68    37    65 1   
    69    37    66 1   
    70    37    67 1   
@<TRIPOS>SUBSTRUCTURE
     1 FGF         1 TEMP              0 ****  ****    0 ROOT
