@<TRIPOS>MOLECULE
FGH
   67    71     1     0     0
SMALL
No Charge or Current Charge


@<TRIPOS>ATOM
      1 O1          -5.4930    -0.6910     0.0870 o          1 FGH      -0.542100
      2 C21         -4.3720    -1.1160    -0.1670 c          1 FGH       0.616700
      3 C22         -4.1200    -2.6140    -0.4300 c6         1 FGH      -0.174400
      4 C23         -2.7340    -3.1290     0.0760 c6         1 FGH      -0.031000
      5 C26         -2.5460    -4.6200    -0.3330 c3         1 FGH      -0.087600
      6 C25         -2.6730    -3.0690     1.6340 c3         1 FGH      -0.087600
      7 C24         -1.5940    -2.2630    -0.5490 c6         1 FGH      -0.012100
      8 C13         -1.9090    -0.7920    -0.4120 cc         1 FGH      -0.089300
      9 C14         -3.1600    -0.2590    -0.2200 cd         1 FGH      -0.246600
     10 C15         -3.0260     1.1500    -0.0660 cd         1 FGH      -0.060300
     11 C19         -4.1070     2.1780     0.1630 c6         1 FGH      -0.000100
     12 C18         -3.4790     3.5430     0.5700 c6         1 FGH       0.161800
     13 N2          -2.2750     3.8860    -0.2490 n3         1 FGH      -0.710600
     14 C20         -1.8190     5.2760    -0.0400 c3         1 FGH       0.152100
     15 C17         -1.1700     2.8970    -0.0610 c6         1 FGH       0.241100
     16 C16         -1.7090     1.4940    -0.1740 cc         1 FGH      -0.177300
     17 N1          -1.0400     0.2950    -0.3840 na         1 FGH       0.125200
     18 C6           0.3460     0.1850    -0.4920 ca         1 FGH       0.015800
     19 C5           1.1740     0.6000     0.5600 ca         1 FGH      -0.127000
     20 C7           0.9260    -0.3550    -1.6470 ca         1 FGH      -0.122000
     21 C8           2.3210    -0.4740    -1.7560 ca         1 FGH      -0.045300
     22 C12          2.9030    -1.0930    -3.0250 c6         1 FGH      -0.056100
     23 C11          4.2990    -0.5460    -3.3500 c6         1 FGH       0.114000
     24 N            5.1320    -0.4750    -2.1510 ns         1 FGH      -0.509900
     25 C10          4.6800    -0.2360    -0.8760 c          1 FGH       0.577600
     26 O            5.4960    -0.2040     0.0300 o          1 FGH      -0.564000
     27 C9           3.1730    -0.0660    -0.6950 ca         1 FGH      -0.137600
     28 C4           2.5770     0.4780     0.4850 ca         1 FGH       0.001700
     29 C3           3.3690     0.9740     1.7010 c3         1 FGH      -0.031100
     30 C1           3.7030    -0.1420     2.7310 c3         1 FGH      -0.053700
     31 C2           4.6470     0.3840     3.8350 c3         1 FGH      -0.088600
     32 C            2.4360    -0.7840     3.3460 c3         1 FGH      -0.088600
     33 H1          -4.9660    -3.2050    -0.0550 hc         1 FGH       0.066700
     34 H2          -4.1120    -2.7160    -1.5230 hc         1 FGH       0.066700
     35 H3          -1.5770    -5.0090     0.0050 hc         1 FGH       0.038033
     36 H4          -3.3270    -5.2560     0.1000 hc         1 FGH       0.038033
     37 H5          -2.5870    -4.7450    -1.4220 hc         1 FGH       0.038033
     38 H6          -2.7790    -2.0450     2.0110 hc         1 FGH       0.038033
     39 H7          -3.4720    -3.6680     2.0880 hc         1 FGH       0.038033
     40 H8          -1.7180    -3.4560     2.0120 hc         1 FGH       0.038033
     41 H9          -0.6320    -2.5060    -0.0760 hc         1 FGH       0.056700
     42 H10         -1.4790    -2.5110    -1.6130 hc         1 FGH       0.056700
     43 H11         -4.6920     2.3090    -0.7560 hc         1 FGH       0.065700
     44 H12         -4.8100     1.8520     0.9410 hc         1 FGH       0.065700
     45 H13         -4.2490     4.3230     0.4710 h1         1 FGH       0.033200
     46 H14         -3.2020     3.5010     1.6330 h1         1 FGH       0.033200
     47 H16         -1.4960     5.4300     0.9990 h1         1 FGH       0.031033
     48 H17         -0.9740     5.5110    -0.7010 h1         1 FGH       0.031033
     49 H18         -2.6270     5.9870    -0.2580 h1         1 FGH       0.031033
     50 H19         -0.3810     3.0610    -0.8100 h1         1 FGH       0.039700
     51 H20         -0.7070     3.0300     0.9290 h1         1 FGH       0.039700
     52 H21          0.7180     1.0090     1.4580 ha         1 FGH       0.133000
     53 H22          0.2880    -0.6820    -2.4650 ha         1 FGH       0.130000
     54 H23          2.9660    -2.1810    -2.8880 hc         1 FGH       0.066200
     55 H24          2.2380    -0.9270    -3.8830 hc         1 FGH       0.066200
     56 H25          4.7920    -1.1770    -4.1040 h1         1 FGH       0.049200
     57 H26          4.2090     0.4700    -3.7620 h1         1 FGH       0.049200
     58 H27          6.1330    -0.5970    -2.2470 hn         1 FGH       0.322500
     59 H28          4.2860     1.4800     1.3810 hc         1 FGH       0.056200
     60 H29          2.8000     1.7570     2.2180 hc         1 FGH       0.056200
     61 H30          4.2400    -0.9400     2.2030 hc         1 FGH       0.069700
     62 H31          4.1670     1.1850     4.4110 hc         1 FGH       0.032367
     63 H32          4.9200    -0.4210     4.5290 hc         1 FGH       0.032367
     64 H33          5.5720     0.7800     3.3990 hc         1 FGH       0.032367
     65 H34          2.7090    -1.5490     4.0820 hc         1 FGH       0.032367
     66 H35          1.8200    -0.0290     3.8490 hc         1 FGH       0.032367
     67 H36          1.8270    -1.2700     2.5750 hc         1 FGH       0.032367
@<TRIPOS>BOND
     1     1     2 2   
     2     2     3 1   
     3     2     9 1   
     4     3     4 1   
     5     3    33 1   
     6     3    34 1   
     7     4     5 1   
     8     4     6 1   
     9     4     7 1   
    10     5    35 1   
    11     5    36 1   
    12     5    37 1   
    13     6    38 1   
    14     6    39 1   
    15     6    40 1   
    16     7     8 1   
    17     7    41 1   
    18     7    42 1   
    19     8     9 2   
    20     8    17 1   
    21     9    10 1   
    22    10    11 1   
    23    10    16 2   
    24    11    12 1   
    25    11    43 1   
    26    11    44 1   
    27    12    13 1   
    28    12    45 1   
    29    12    46 1   
    30    13    14 1   
    31    13    15 1   
    32    14    47 1   
    33    14    48 1   
    34    14    49 1   
    35    15    16 1   
    36    15    50 1   
    37    15    51 1   
    38    16    17 1   
    39    17    18 1   
    40    18    19 ar  
    41    18    20 ar  
    42    19    28 ar  
    43    19    52 1   
    44    20    21 ar  
    45    20    53 1   
    46    21    22 1   
    47    21    27 ar  
    48    22    23 1   
    49    22    54 1   
    50    22    55 1   
    51    23    24 1   
    52    23    56 1   
    53    23    57 1   
    54    24    25 1   
    55    24    58 1   
    56    25    26 2   
    57    25    27 1   
    58    27    28 ar  
    59    28    29 1   
    60    29    30 1   
    61    29    59 1   
    62    29    60 1   
    63    30    31 1   
    64    30    32 1   
    65    30    61 1   
    66    31    62 1   
    67    31    63 1   
    68    31    64 1   
    69    32    65 1   
    70    32    66 1   
    71    32    67 1   
@<TRIPOS>SUBSTRUCTURE
     1 FGH         1 TEMP              0 ****  ****    0 ROOT
