@<TRIPOS>MOLECULE
FGH
   67    71     1     0     0
SMALL
bcc


@<TRIPOS>ATOM
      1 O1          -5.4900    -0.7110     0.0450 o          1 FGH      -0.542100
      2 C21         -4.3560    -1.1280    -0.1210 c          1 FGH       0.616700
      3 C22         -4.0730    -2.6030    -0.3400 c6         1 FGH      -0.174400
      4 C23         -2.7040    -3.0900     0.1600 c6         1 FGH      -0.031000
      5 C26         -2.5010    -4.5420    -0.2650 c3         1 FGH      -0.087600
      6 C25         -2.6450    -3.0060     1.6870 c3         1 FGH      -0.087600
      7 C24         -1.5910    -2.2280    -0.4620 c6         1 FGH      -0.012100
      8 C13         -1.9260    -0.7890    -0.3270 cc         1 FGH      -0.038600
      9 C14         -3.1950    -0.2700    -0.1710 cd         1 FGH      -0.246600
     10 C15         -3.0700     1.1490    -0.0480 cd         1 FGH      -0.060300
     11 C19         -4.0790     2.2330     0.1110 c6         1 FGH      -0.000100
     12 C18         -3.3630     3.5320     0.4680 c6         1 FGH       0.161800
     13 N2          -2.2080     3.7590    -0.3890 n3         1 FGH      -0.710600
     14 C20         -1.7020     5.1060    -0.2670 c3         1 FGH       0.152100
     15 C17         -1.1520     2.7960    -0.1360 c6         1 FGH       0.241100
     16 C16         -1.7440     1.4310    -0.1390 cc         1 FGH      -0.126600
     17 N1          -1.0470     0.2450    -0.3070 na         1 FGH       0.023800
     18 C6           0.3550     0.1330    -0.4330 ca         1 FGH       0.015800
     19 C5           1.1760     0.5370     0.6060 ca         1 FGH      -0.145000
     20 C7           0.9070    -0.3700    -1.5970 ca         1 FGH      -0.140000
     21 C8           2.2830    -0.4620    -1.7210 ca         1 FGH      -0.045300
     22 C12          2.8870    -0.9710    -2.9960 c6         1 FGH      -0.056100
     23 C11          4.1480    -0.1960    -3.2980 c6         1 FGH       0.114000
     24 N            5.0130    -0.2530    -2.1400 ns         1 FGH      -0.576900
     25 C10          4.6010    -0.1790    -0.8640 c          1 FGH       0.720100
     26 O            5.4030    -0.2090     0.0650 o          1 FGH      -0.639500
     27 C9           3.1200    -0.0620    -0.6670 ca         1 FGH      -0.137600
     28 C4           2.5620     0.4400     0.5220 ca         1 FGH       0.001700
     29 C3           3.3460     0.8710     1.7340 c3         1 FGH      -0.031100
     30 C1           3.6800    -0.2750     2.7050 c3         1 FGH      -0.053700
     31 C2           4.5750     0.2520     3.8220 c3         1 FGH      -0.088600
     32 C            2.4290    -0.9270     3.2820 c3         1 FGH      -0.088600
     33 H1          -4.8740    -3.1860     0.1230 hc         1 FGH       0.066700
     34 H2          -4.1500    -2.7770    -1.4210 hc         1 FGH       0.066700
     35 H3          -1.5290    -4.9170     0.0640 hc         1 FGH       0.038033
     36 H4          -3.2670    -5.1890     0.1670 hc         1 FGH       0.038033
     37 H5          -2.5470    -4.6530    -1.3500 hc         1 FGH       0.038033
     38 H6          -2.7730    -1.9880     2.0580 hc         1 FGH       0.038033
     39 H7          -3.4290    -3.6190     2.1350 hc         1 FGH       0.038033
     40 H8          -1.6870    -3.3730     2.0610 hc         1 FGH       0.038033
     41 H9          -0.6290    -2.4620     0.0040 hc         1 FGH       0.056700
     42 H10         -1.4790    -2.4860    -1.5220 hc         1 FGH       0.056700
     43 H11         -4.6510     2.3590    -0.8120 hc         1 FGH       0.065700
     44 H12         -4.8040     1.9920     0.8890 hc         1 FGH       0.065700
     45 H13         -4.0510     4.3700     0.3470 h1         1 FGH       0.033200
     46 H14         -3.0740     3.5130     1.5330 h1         1 FGH       0.033200
     47 H16         -1.3450     5.3500     0.7460 h1         1 FGH       0.031033
     48 H17         -0.8700     5.2590    -0.9560 h1         1 FGH       0.031033
     49 H18         -2.4810     5.8240    -0.5270 h1         1 FGH       0.031033
     50 H19         -0.3880     2.8930    -0.9150 h1         1 FGH       0.039700
     51 H20         -0.6420     3.0010     0.8230 h1         1 FGH       0.039700
     52 H21          0.7260     0.9200     1.5130 ha         1 FGH       0.151000
     53 H22          0.2700    -0.6600    -2.4230 ha         1 FGH       0.148000
     54 H23          3.1240    -2.0350    -2.9000 hc         1 FGH       0.066200
     55 H24          2.1830    -0.8740    -3.8210 hc         1 FGH       0.066200
     56 H25          4.6780    -0.6320    -4.1410 h1         1 FGH       0.049200
     57 H26          3.9060     0.8380    -3.5590 h1         1 FGH       0.049200
     58 H27          6.0080    -0.2920    -2.2910 hn         1 FGH       0.322500
     59 H28          4.2690     1.3670     1.4410 hc         1 FGH       0.056200
     60 H29          2.7520     1.6140     2.2760 hc         1 FGH       0.056200
     61 H30          4.2390    -1.0290     2.1470 hc         1 FGH       0.069700
     62 H31          4.0680     1.0280     4.4020 hc         1 FGH       0.032367
     63 H32          4.8480    -0.5440     4.5170 hc         1 FGH       0.032367
     64 H33          5.4970     0.6820     3.4270 hc         1 FGH       0.032367
     65 H34          2.6950    -1.7100     3.9940 hc         1 FGH       0.032367
     66 H35          1.8070    -0.2010     3.8120 hc         1 FGH       0.032367
     67 H36          1.8120    -1.3890     2.5110 hc         1 FGH       0.032367
@<TRIPOS>BOND
     1     1     2 2   
     2     2     3 1   
     3     2     9 1   
     4     3     4 1   
     5     3    33 1   
     6     3    34 1   
     7     4     5 1   
     8     4     6 1   
     9     4     7 1   
    10     5    35 1   
    11     5    36 1   
    12     5    37 1   
    13     6    38 1   
    14     6    39 1   
    15     6    40 1   
    16     7     8 1   
    17     7    41 1   
    18     7    42 1   
    19     8     9 2   
    20     8    17 1   
    21     9    10 1   
    22    10    11 1   
    23    10    16 2   
    24    11    12 1   
    25    11    43 1   
    26    11    44 1   
    27    12    13 1   
    28    12    45 1   
    29    12    46 1   
    30    13    14 1   
    31    13    15 1   
    32    14    47 1   
    33    14    48 1   
    34    14    49 1   
    35    15    16 1   
    36    15    50 1   
    37    15    51 1   
    38    16    17 1   
    39    17    18 1   
    40    18    19 ar  
    41    18    20 ar  
    42    19    28 ar  
    43    19    52 1   
    44    20    21 ar  
    45    20    53 1   
    46    21    22 1   
    47    21    27 ar  
    48    22    23 1   
    49    22    54 1   
    50    22    55 1   
    51    23    24 1   
    52    23    56 1   
    53    23    57 1   
    54    24    25 1   
    55    24    58 1   
    56    25    26 2   
    57    25    27 1   
    58    27    28 ar  
    59    28    29 1   
    60    29    30 1   
    61    29    59 1   
    62    29    60 1   
    63    30    31 1   
    64    30    32 1   
    65    30    61 1   
    66    31    62 1   
    67    31    63 1   
    68    31    64 1   
    69    32    65 1   
    70    32    66 1   
    71    32    67 1   
@<TRIPOS>SUBSTRUCTURE
     1 FGH         1 TEMP              0 ****  ****    0 ROOT
