@<TRIPOS>MOLECULE
FGJ
   48    47     1     0     0
SMALL
No Charge or Current Charge


@<TRIPOS>ATOM
      1 C4          -2.9060     1.0540     1.2510 c3         1 FGJ      -0.136400
      2 C2          -5.1430     1.6500     0.1160 c3         1 FGJ      -0.077400
      3 C6          -0.3350    -1.6820     1.3180 c3         1 FGJ       0.170600
      4 C5          -2.0640    -0.0830     1.8340 c          1 FGJ       0.591100
      5 C8          -0.2080    -2.6310    -1.1210 c3         1 FGJ       0.145600
      6 C           -7.3760     2.2440    -1.0160 c3         1 FGJ      -0.089100
      7 O4           2.9020    -2.3420    -1.3840 o          1 FGJ      -0.497000
      8 C10          3.2940     0.0560    -1.3000 c3         1 FGJ      -0.137400
      9 C11          4.4380     0.2950    -0.2870 c3         1 FGJ      -0.068400
     10 C12          5.2190     1.6010    -0.5560 c3         1 FGJ      -0.077400
     11 C13          6.3610     1.8410     0.4540 c3         1 FGJ      -0.074400
     12 C14          7.1400     3.1430     0.1860 c3         1 FGJ      -0.089100
     13 O3           1.4430    -1.0120    -0.2030 os         1 FGJ      -0.428100
     14 C7           0.5740    -2.1230     0.1380 c3         1 FGJ       0.174300
     15 O1          -1.1930    -0.5950     0.9120 os         1 FGJ      -0.416100
     16 O           -2.1710    -0.4850     2.9850 o          1 FGJ      -0.498000
     17 C3          -4.2640     0.5350     0.7240 c3         1 FGJ      -0.069400
     18 C1          -6.4990     1.1310    -0.4100 c3         1 FGJ      -0.074400
     19 H1          -3.0850     1.8050     2.0290 hc         1 FGJ       0.073700
     20 H2          -2.3700     1.4970     0.4030 hc         1 FGJ       0.073700
     21 H3          -5.3230     2.4210     0.8760 hc         1 FGJ       0.037700
     22 H4          -4.5980     2.1310    -0.7060 hc         1 FGJ       0.037700
     23 H5          -0.9340    -2.5420     1.6440 h1         1 FGJ       0.056200
     24 H6           0.3010    -1.3780     2.1600 h1         1 FGJ       0.056200
     25 H7           0.4620    -3.2640    -1.7180 h1         1 FGJ       0.029700
     26 H8          -1.0310    -3.2760    -0.7860 h1         1 FGJ       0.029700
     27 H9          -7.6000     3.0130    -0.2670 hc         1 FGJ       0.031700
     28 H10         -6.8680     2.7210    -1.8630 hc         1 FGJ       0.031700
     29 H11         -8.3260     1.8290    -1.3750 hc         1 FGJ       0.031700
     30 H12          3.7140    -0.0050    -2.3110 hc         1 FGJ       0.074200
     31 H13          2.5990     0.9000    -1.2200 hc         1 FGJ       0.074200
     32 H14          4.0200     0.3270     0.7270 hc         1 FGJ       0.053200
     33 H15          5.1320    -0.5540    -0.3200 hc         1 FGJ       0.053200
     34 H16          5.6360     1.5680    -1.5710 hc         1 FGJ       0.037700
     35 H17          4.5240     2.4500    -0.5230 hc         1 FGJ       0.037700
     36 H18          5.9480     1.8760     1.4700 hc         1 FGJ       0.038700
     37 H19          7.0590     0.9950     0.4220 hc         1 FGJ       0.038700
     38 H20          7.9390     3.2700     0.9270 hc         1 FGJ       0.032033
     39 H21          7.5970     3.1240    -0.8110 hc         1 FGJ       0.032033
     40 H22          6.4750     4.0120     0.2470 hc         1 FGJ       0.032033
     41 H23          1.1740    -2.9620     0.5140 h1         1 FGJ       0.072700
     42 H24         -1.2050    -1.9780    -2.6880 ho         1 FGJ       0.440000
     43 H25         -4.0840    -0.2370    -0.0360 hc         1 FGJ       0.052700
     44 H26         -4.8090     0.0520     1.5450 hc         1 FGJ       0.052700
     45 H27         -6.3240     0.3620    -1.1720 hc         1 FGJ       0.038700
     46 H28         -7.0490     0.6520     0.4100 hc         1 FGJ       0.038700
     47 O2          -0.7190    -1.5630    -1.9420 oh         1 FGJ      -0.635000
     48 C9           2.5410    -1.2400    -0.9920 c          1 FGJ       0.594100
@<TRIPOS>BOND
     1     1     4 1   
     2     1    17 1   
     3     1    19 1   
     4     1    20 1   
     5     2    17 1   
     6     2    18 1   
     7     2    21 1   
     8     2    22 1   
     9     3    14 1   
    10     3    15 1   
    11     3    23 1   
    12     3    24 1   
    13     4    15 1   
    14     4    16 2   
    15     5    14 1   
    16     5    25 1   
    17     5    26 1   
    18     5    47 1   
    19     6    18 1   
    20     6    27 1   
    21     6    28 1   
    22     6    29 1   
    23     7    48 2   
    24     8     9 1   
    25     8    30 1   
    26     8    31 1   
    27     8    48 1   
    28     9    10 1   
    29     9    32 1   
    30     9    33 1   
    31    10    11 1   
    32    10    34 1   
    33    10    35 1   
    34    11    12 1   
    35    11    36 1   
    36    11    37 1   
    37    12    38 1   
    38    12    39 1   
    39    12    40 1   
    40    13    14 1   
    41    13    48 1   
    42    14    41 1   
    43    17    43 1   
    44    17    44 1   
    45    18    45 1   
    46    18    46 1   
    47    42    47 1   
@<TRIPOS>SUBSTRUCTURE
     1 FGJ         1 TEMP              0 ****  ****    0 ROOT
