@<TRIPOS>MOLECULE
FGJ
   48    47     1     0     0
SMALL
bcc


@<TRIPOS>ATOM
      1 C4          -3.2930     0.1620    -0.0370 c3         1 FGJ      -0.136400
      2 C2          -5.3350     1.6130    -0.3420 c3         1 FGJ      -0.077400
      3 C6          -0.6140    -2.1570     0.9520 c3         1 FGJ       0.147400
      4 C5          -2.5920    -0.8920     0.7760 c          1 FGJ       0.640100
      5 C8           0.5190    -3.0960    -1.1530 c3         1 FGJ       0.122400
      6 C           -7.3830     3.0810    -0.6540 c3         1 FGJ      -0.089100
      7 O4           3.3610    -2.1010     0.2030 o          1 FGJ      -0.546000
      8 C10          3.1840     0.2870    -0.0600 c3         1 FGJ      -0.137400
      9 C11          4.6950     0.4030     0.0690 c3         1 FGJ      -0.068400
     10 C12          5.1700     1.8430    -0.0730 c3         1 FGJ      -0.077400
     11 C13          6.6810     1.9850     0.0650 c3         1 FGJ      -0.074400
     12 C14          7.1540     3.4240    -0.0810 c3         1 FGJ      -0.089100
     13 O3           1.3400    -1.1520     0.0630 os         1 FGJ      -0.404900
     14 C7           0.6690    -2.4100     0.1920 c3         1 FGJ       0.151100
     15 O1          -1.4030    -1.1900     0.2660 os         1 FGJ      -0.392900
     16 O           -3.0330    -1.4110     1.7710 o          1 FGJ      -0.547000
     17 C3          -4.6650     0.5340     0.5000 c3         1 FGJ      -0.069400
     18 C1          -6.7030     2.0150     0.1930 c3         1 FGJ      -0.074400
     19 H1          -2.6460     1.0440    -0.0780 hc         1 FGJ       0.073700
     20 H2          -3.3650    -0.1940    -1.0700 hc         1 FGJ       0.073700
     21 H3          -4.6890     2.4960    -0.3860 hc         1 FGJ       0.037700
     22 H4          -5.4370     1.2600    -1.3750 hc         1 FGJ       0.037700
     23 H5          -1.1520    -3.1030     1.0510 h1         1 FGJ       0.056200
     24 H6          -0.3780    -1.8010     1.9580 h1         1 FGJ       0.056200
     25 H7           1.5190    -3.3550    -1.5200 h1         1 FGJ       0.029700
     26 H8           0.0030    -4.0490    -0.9670 h1         1 FGJ       0.029700
     27 H9          -6.7730     3.9850    -0.7200 hc         1 FGJ       0.031700
     28 H10         -7.5540     2.7260    -1.6720 hc         1 FGJ       0.031700
     29 H11         -8.3500     3.3660    -0.2370 hc         1 FGJ       0.031700
     30 H12          2.8520     0.6700    -1.0310 hc         1 FGJ       0.074200
     31 H13          2.6850     0.9130     0.6860 hc         1 FGJ       0.074200
     32 H14          5.0130     0.0090     1.0380 hc         1 FGJ       0.053200
     33 H15          5.1790    -0.2170    -0.6910 hc         1 FGJ       0.053200
     34 H16          4.8570     2.2390    -1.0460 hc         1 FGJ       0.037700
     35 H17          4.6790     2.4660     0.6810 hc         1 FGJ       0.037700
     36 H18          6.9930     1.5920     1.0380 hc         1 FGJ       0.038700
     37 H19          7.1730     1.3600    -0.6860 hc         1 FGJ       0.038700
     38 H20          8.2370     3.5040     0.0250 hc         1 FGJ       0.032033
     39 H21          6.8880     3.8300    -1.0590 hc         1 FGJ       0.032033
     40 H22          6.7020     4.0680     0.6760 hc         1 FGJ       0.032033
     41 H23          1.2530    -3.0890     0.8220 h1         1 FGJ       0.072700
     42 H24         -0.1140    -2.6950    -2.9270 ho         1 FGJ       0.401000
     43 H25         -5.3060    -0.3510     0.5310 hc         1 FGJ       0.052700
     44 H26         -4.5750     0.8860     1.5320 hc         1 FGJ       0.052700
     45 H27         -7.3440     1.1290     0.2470 hc         1 FGJ       0.038700
     46 H28         -6.5970     2.3740     1.2210 hc         1 FGJ       0.038700
     47 O2          -0.1730    -2.2810    -2.0610 oh         1 FGJ      -0.572800
     48 C9           2.6710    -1.1200     0.0830 c          1 FGJ       0.643100
@<TRIPOS>BOND
     1     1     4 1   
     2     1    17 1   
     3     1    19 1   
     4     1    20 1   
     5     2    17 1   
     6     2    18 1   
     7     2    21 1   
     8     2    22 1   
     9     3    14 1   
    10     3    15 1   
    11     3    23 1   
    12     3    24 1   
    13     4    15 1   
    14     4    16 2   
    15     5    14 1   
    16     5    25 1   
    17     5    26 1   
    18     5    47 1   
    19     6    18 1   
    20     6    27 1   
    21     6    28 1   
    22     6    29 1   
    23     7    48 2   
    24     8     9 1   
    25     8    30 1   
    26     8    31 1   
    27     8    48 1   
    28     9    10 1   
    29     9    32 1   
    30     9    33 1   
    31    10    11 1   
    32    10    34 1   
    33    10    35 1   
    34    11    12 1   
    35    11    36 1   
    36    11    37 1   
    37    12    38 1   
    38    12    39 1   
    39    12    40 1   
    40    13    14 1   
    41    13    48 1   
    42    14    41 1   
    43    17    43 1   
    44    17    44 1   
    45    18    45 1   
    46    18    46 1   
    47    42    47 1   
@<TRIPOS>SUBSTRUCTURE
     1 FGJ         1 TEMP              0 ****  ****    0 ROOT
