@<TRIPOS>MOLECULE
FGK
   77    77     1     0     0
SMALL
abcg2


@<TRIPOS>ATOM
      1 C1           6.2520     0.7550     1.4420 c          1 FGK       0.622100
      2 O1           5.8970    -0.1010     2.2380 o          1 FGK      -0.616100
      3 C2           7.4870     1.5900     1.6870 c3         1 FGK      -0.180100
      4 N1           5.6200     1.0210     0.2820 ns         1 FGK      -0.488900
      5 C3           4.4070     0.4190    -0.2070 c3         1 FGK       0.048700
      6 C4           3.1740     0.9530     0.5290 c          1 FGK       0.586100
      7 O2           3.2070     1.3200     1.6900 o          1 FGK      -0.569100
      8 C5           4.4070    -1.1230    -0.2090 c3         1 FGK      -0.039100
      9 C6           5.5340    -1.6770    -1.0350 ca         1 FGK      -0.081300
     10 C7           6.7150    -2.1220    -0.4460 ca         1 FGK      -0.107500
     11 C8           5.4210    -1.7320    -2.4230 ca         1 FGK      -0.107500
     12 C9           7.7580    -2.6060    -1.2240 ca         1 FGK      -0.113500
     13 C10          6.4620    -2.2140    -3.2050 ca         1 FGK      -0.113500
     14 C11          7.6370    -2.6520    -2.6070 ca         1 FGK      -0.113000
     15 N2           2.0640     0.9500    -0.2290 ns         1 FGK      -0.498900
     16 C12          0.7530     1.3210     0.2420 c3         1 FGK       0.028700
     17 C13         -0.2570     0.3090    -0.2850 c          1 FGK       0.591100
     18 O4          -0.0980    -0.2560    -1.3570 o          1 FGK      -0.630100
     19 C14          0.3330     2.7250    -0.2210 c3         1 FGK      -0.061400
     20 C15          1.2350     3.8200     0.3190 c3         1 FGK      -0.211400
     21 C16          0.8190     5.2550    -0.0550 c          1 FGK       0.719000
     22 O5          -0.2530     5.4100    -0.6730 o          1 FGK      -0.731500
     23 O6           1.6030     6.1560     0.3050 o          1 FGK      -0.731500
     24 N3          -1.3350     0.1490     0.4980 ns         1 FGK      -0.502900
     25 C17         -2.5120    -0.5920     0.1210 c3         1 FGK       0.033700
     26 C18         -3.7200     0.3410     0.1760 c          1 FGK       0.586100
     27 O8          -3.7920     1.2380     1.0000 o          1 FGK      -0.575100
     28 C19         -2.7560    -1.7910     1.0450 c3         1 FGK      -0.086400
     29 C20         -1.6280    -2.8110     0.9990 c3         1 FGK      -0.068400
     30 C21         -1.9040    -3.9980     1.9150 c3         1 FGK      -0.107400
     31 C22         -0.7690    -5.0000     1.8520 c3         1 FGK       0.098600
     32 N4          -1.0120    -6.1490     2.7640 nz         1 FGK      -0.974000
     33 N5          -4.6910     0.0580    -0.7040 ns         1 FGK      -0.499900
     34 C23         -5.9200     0.8040    -0.7740 c3         1 FGK       0.010700
     35 C24         -7.0300    -0.0990    -1.2840 c          1 FGK       0.558100
     36 O10         -6.8130    -1.0820    -1.9410 o          1 FGK      -0.497100
     37 C25         -5.7980     2.0270    -1.6920 c3         1 FGK      -0.112100
     38 C26         -8.4170     0.3520    -0.8990 c3         1 FGK       0.000600
     39 CL1         -9.6790    -0.5420    -1.7640 cl         1 FGK      -0.226000
     40 H2           8.3620     0.9400     1.7070 hc         1 FGK       0.059700
     41 H3           7.6520     2.3640     0.9410 hc         1 FGK       0.059700
     42 H4           7.4130     2.0640     2.6660 hc         1 FGK       0.059700
     43 H5           5.9990     1.7560    -0.2900 hn         1 FGK       0.321500
     44 H7           4.3320     0.7380    -1.2510 h1         1 FGK       0.060700
     45 H8           4.4560    -1.4960     0.8110 hc         1 FGK       0.062200
     46 H9           3.4530    -1.4530    -0.6260 hc         1 FGK       0.062200
     47 H10          6.8190    -2.0900     0.6320 ha         1 FGK       0.118500
     48 H11          4.5060    -1.3990    -2.9000 ha         1 FGK       0.118500
     49 H12          8.6680    -2.9510    -0.7490 ha         1 FGK       0.111500
     50 H13          6.3540    -2.2510    -4.2820 ha         1 FGK       0.111500
     51 H14          8.4500    -3.0300    -3.2120 ha         1 FGK       0.111000
     52 H16          2.1320     0.6780    -1.1980 hn         1 FGK       0.323500
     53 H18          0.7700     1.2950     1.3340 h1         1 FGK       0.081700
     54 H19          0.3220     2.7470    -1.3150 hc         1 FGK       0.056200
     55 H20         -0.6960     2.8990     0.1010 hc         1 FGK       0.056200
     56 H21          1.2830     3.7510     1.4110 hc         1 FGK       0.027200
     57 H22          2.2630     3.6670    -0.0220 hc         1 FGK       0.027200
     58 H25         -1.3830     0.6680     1.3610 hn         1 FGK       0.342500
     59 H27         -2.3630    -0.9530    -0.8980 h1         1 FGK       0.092700
     60 H28         -2.8970    -1.4310     2.0690 hc         1 FGK       0.054200
     61 H29         -3.6940    -2.2670     0.7490 hc         1 FGK       0.054200
     62 H30         -1.4940    -3.1630    -0.0280 hc         1 FGK       0.067200
     63 H31         -0.6880    -2.3400     1.2960 hc         1 FGK       0.067200
     64 H32         -2.0300    -3.6470     2.9430 hc         1 FGK       0.062200
     65 H33         -2.8410    -4.4810     1.6230 hc         1 FGK       0.062200
     66 H34         -0.6520    -5.4160     0.8530 hx         1 FGK       0.109700
     67 H35          0.1760    -4.5570     2.1560 hx         1 FGK       0.109700
     68 H36         -1.1020    -5.8510     3.7350 hn         1 FGK       0.509333
     69 H37         -1.8620    -6.6560     2.5230 hn         1 FGK       0.509333
     70 H38         -0.2460    -6.8200     2.7310 hn         1 FGK       0.509333
     71 H40         -4.5360    -0.6550    -1.4020 hn         1 FGK       0.330500
     72 H42         -6.1820     1.1450     0.2310 h1         1 FGK       0.091700
     73 H43         -5.0090     2.6790    -1.3200 hc         1 FGK       0.060367
     74 H44         -5.5510     1.7270    -2.7100 hc         1 FGK       0.060367
     75 H45         -6.7200     2.6080    -1.7160 hc         1 FGK       0.060367
     76 H46         -8.5450     0.1890     0.1730 h1         1 FGK       0.089700
     77 H47         -8.5500     1.4170    -1.0830 h1         1 FGK       0.089700
@<TRIPOS>BOND
     1     1     2 2   
     2     1     3 1   
     3     1     4 1   
     4     3    40 1   
     5     3    41 1   
     6     3    42 1   
     7     4     5 1   
     8     4    43 1   
     9     5     6 1   
    10     5     8 1   
    11     5    44 1   
    12     6     7 2   
    13     6    15 1   
    14     8     9 1   
    15     8    45 1   
    16     8    46 1   
    17     9    10 ar  
    18     9    11 ar  
    19    10    12 ar  
    20    10    47 1   
    21    11    13 ar  
    22    11    48 1   
    23    12    14 ar  
    24    12    49 1   
    25    13    14 ar  
    26    13    50 1   
    27    14    51 1   
    28    15    16 1   
    29    15    52 1   
    30    16    17 1   
    31    16    19 1   
    32    16    53 1   
    33    17    18 2   
    34    17    24 1   
    35    19    20 1   
    36    19    54 1   
    37    19    55 1   
    38    20    21 1   
    39    20    56 1   
    40    20    57 1   
    41    21    22 1   
    42    21    23 1   
    43    24    25 1   
    44    24    58 1   
    45    25    26 1   
    46    25    28 1   
    47    25    59 1   
    48    26    27 2   
    49    26    33 1   
    50    28    29 1   
    51    28    60 1   
    52    28    61 1   
    53    29    30 1   
    54    29    62 1   
    55    29    63 1   
    56    30    31 1   
    57    30    64 1   
    58    30    65 1   
    59    31    32 1   
    60    31    66 1   
    61    31    67 1   
    62    32    68 1   
    63    32    69 1   
    64    32    70 1   
    65    33    34 1   
    66    33    71 1   
    67    34    35 1   
    68    34    37 1   
    69    34    72 1   
    70    35    36 2   
    71    35    38 1   
    72    37    73 1   
    73    37    74 1   
    74    37    75 1   
    75    38    39 1   
    76    38    76 1   
    77    38    77 1   
@<TRIPOS>SUBSTRUCTURE
     1 FGK         1 TEMP              0 ****  ****    0 ROOT
