@<TRIPOS>MOLECULE
FGK
   77    77     1     0     0
SMALL
No Charge or Current Charge


@<TRIPOS>ATOM
      1 C1           5.9280    -0.2750     1.8060 c          1 FGK       0.622100
      2 O1           5.0960    -1.1120     2.1260 o          1 FGK      -0.616100
      3 C2           7.2300    -0.0890     2.5730 c3         1 FGK      -0.180100
      4 N1           5.7700     0.5750     0.7330 ns         1 FGK      -0.488900
      5 C3           4.6240     0.5750    -0.2110 c3         1 FGK       0.048700
      6 C4           3.3200     1.1210     0.4600 c          1 FGK       0.586100
      7 O2           3.2920     1.5980     1.5880 o          1 FGK      -0.569100
      8 C5           4.4350    -0.7880    -0.9390 c3         1 FGK      -0.039100
      9 C6           5.7410    -1.3540    -1.4920 ca         1 FGK      -0.081300
     10 C7           6.3180    -2.5070    -0.9250 ca         1 FGK      -0.107500
     11 C8           6.3830    -0.7220    -2.5750 ca         1 FGK      -0.107500
     12 C9           7.5250    -3.0190    -1.4310 ca         1 FGK      -0.113500
     13 C10          7.5900    -1.2350    -3.0820 ca         1 FGK      -0.113500
     14 C11          8.1620    -2.3830    -2.5100 ca         1 FGK      -0.113000
     15 N2           2.1760     1.0320    -0.3120 ns         1 FGK      -0.498900
     16 C12          0.8250     1.4820     0.1000 c3         1 FGK       0.028700
     17 C13         -0.2420     0.4490    -0.3660 c          1 FGK       0.591100
     18 O4          -0.0150    -0.4170    -1.2020 o          1 FGK      -0.630100
     19 C14          0.5080     2.9020    -0.4470 c3         1 FGK      -0.061400
     20 C15          1.4660     4.0180     0.0480 c3         1 FGK      -0.211400
     21 C16          0.9900     5.3900    -0.4590 c          1 FGK       0.719000
     22 O5           0.1910     6.0100     0.2250 o          1 FGK      -0.731500
     23 O6           1.3900     5.7700    -1.5490 o          1 FGK      -0.731500
     24 N3          -1.4770     0.5700     0.2380 ns         1 FGK      -0.502900
     25 C17         -2.6490    -0.2970    -0.0300 c3         1 FGK       0.033700
     26 C18         -3.9530     0.5540    -0.0440 c          1 FGK       0.586100
     27 O8          -4.0030     1.7080     0.3640 o          1 FGK      -0.575100
     28 C19         -2.7420    -1.4580     1.0000 c3         1 FGK      -0.086400
     29 C20         -1.5240    -2.4140     1.0080 c3         1 FGK      -0.068400
     30 C21         -1.6970    -3.6000     1.9820 c3         1 FGK      -0.107400
     31 C22         -0.4810    -4.5390     1.9880 c3         1 FGK       0.098600
     32 N4          -0.6920    -5.6780     2.9500 nz         1 FGK      -0.974000
     33 N5          -5.0670    -0.0860    -0.5520 ns         1 FGK      -0.499900
     34 C23         -6.4130     0.5200    -0.6810 c3         1 FGK       0.010700
     35 C24         -7.5130    -0.5810    -0.7530 c          1 FGK       0.558100
     36 O10         -7.2340    -1.7680    -0.9070 o          1 FGK      -0.497100
     37 C25         -6.4720     1.4900    -1.8850 c3         1 FGK      -0.112100
     38 C26         -8.9660    -0.0950    -0.6060 c3         1 FGK       0.000600
     39 Cl1        -10.1540    -1.3980    -0.1240 cl         1 FGK      -0.226000
     40 H2           8.0700    -0.1950     1.8770 hc         1 FGK       0.059700
     41 H3           7.3150     0.9580     2.8850 hc         1 FGK       0.059700
     42 H4           7.3210    -0.7740     3.4230 hc         1 FGK       0.059700
     43 H5           6.5240     1.2320     0.5710 hn         1 FGK       0.321500
     44 H7           4.8670     1.3100    -0.9890 h1         1 FGK       0.060700
     45 H8           3.9700    -1.5050    -0.2510 hc         1 FGK       0.062200
     46 H9           3.7240    -0.6660    -1.7650 hc         1 FGK       0.062200
     47 H10          5.8350    -3.0050    -0.0870 ha         1 FGK       0.118500
     48 H11          5.9480     0.1690    -3.0250 ha         1 FGK       0.118500
     49 H12          7.9670    -3.9090    -0.9870 ha         1 FGK       0.111500
     50 H13          8.0820    -0.7410    -3.9180 ha         1 FGK       0.111500
     51 H14          9.0960    -2.7800    -2.9020 ha         1 FGK       0.111000
     52 H16          2.2690     0.5990    -1.2240 hn         1 FGK       0.323500
     53 H18          0.7760     1.5070     1.1970 h1         1 FGK       0.081700
     54 H19          0.5230     2.8750    -1.5440 hc         1 FGK       0.056200
     55 H20         -0.5160     3.1710    -0.1580 hc         1 FGK       0.056200
     56 H21          1.4270     3.9850     1.1440 hc         1 FGK       0.027200
     57 H22          2.4530     3.7860    -0.3690 hc         1 FGK       0.027200
     58 H25         -1.5930     1.3360     0.8930 hn         1 FGK       0.342500
     59 H27         -2.5520    -0.7260    -1.0360 h1         1 FGK       0.092700
     60 H28         -2.8720    -1.0350     2.0050 hc         1 FGK       0.054200
     61 H29         -3.6430    -2.0480     0.7920 hc         1 FGK       0.054200
     62 H30         -1.3620    -2.8000    -0.0070 hc         1 FGK       0.067200
     63 H31         -0.6220    -1.8570     1.2880 hc         1 FGK       0.067200
     64 H32         -1.8600    -3.2140     2.9960 hc         1 FGK       0.062200
     65 H33         -2.5920    -4.1700     1.7040 hc         1 FGK       0.062200
     66 H34         -0.3220    -4.9390     0.9790 hx         1 FGK       0.109700
     67 H35          0.4140    -3.9770     2.2790 hx         1 FGK       0.109700
     68 H36         -0.8320    -5.3680     3.9240 hn         1 FGK       0.509333
     69 H37         -1.5140    -6.2580     2.7210 hn         1 FGK       0.509333
     70 H38          0.1060    -6.3330     2.9830 hn         1 FGK       0.509333
     71 H40         -4.9440    -1.0470    -0.8550 hn         1 FGK       0.330500
     72 H42         -6.6160     1.0970     0.2330 h1         1 FGK       0.091700
     73 H43         -5.7060     2.2690    -1.7960 hc         1 FGK       0.060367
     74 H44         -6.3040     0.9510    -2.8260 hc         1 FGK       0.060367
     75 H45         -7.4470     1.9890    -1.9440 hc         1 FGK       0.060367
     76 H46         -9.0010     0.6880     0.1600 h1         1 FGK       0.089700
     77 H47         -9.2920     0.3290    -1.5630 h1         1 FGK       0.089700
@<TRIPOS>BOND
     1     1     2 2   
     2     1     3 1   
     3     1     4 1   
     4     3    40 1   
     5     3    41 1   
     6     3    42 1   
     7     4     5 1   
     8     4    43 1   
     9     5     6 1   
    10     5     8 1   
    11     5    44 1   
    12     6     7 2   
    13     6    15 1   
    14     8     9 1   
    15     8    45 1   
    16     8    46 1   
    17     9    10 ar  
    18     9    11 ar  
    19    10    12 ar  
    20    10    47 1   
    21    11    13 ar  
    22    11    48 1   
    23    12    14 ar  
    24    12    49 1   
    25    13    14 ar  
    26    13    50 1   
    27    14    51 1   
    28    15    16 1   
    29    15    52 1   
    30    16    17 1   
    31    16    19 1   
    32    16    53 1   
    33    17    18 2   
    34    17    24 1   
    35    19    20 1   
    36    19    54 1   
    37    19    55 1   
    38    20    21 1   
    39    20    56 1   
    40    20    57 1   
    41    21    22 1   
    42    21    23 1   
    43    24    25 1   
    44    24    58 1   
    45    25    26 1   
    46    25    28 1   
    47    25    59 1   
    48    26    27 2   
    49    26    33 1   
    50    28    29 1   
    51    28    60 1   
    52    28    61 1   
    53    29    30 1   
    54    29    62 1   
    55    29    63 1   
    56    30    31 1   
    57    30    64 1   
    58    30    65 1   
    59    31    32 1   
    60    31    66 1   
    61    31    67 1   
    62    32    68 1   
    63    32    69 1   
    64    32    70 1   
    65    33    34 1   
    66    33    71 1   
    67    34    35 1   
    68    34    37 1   
    69    34    72 1   
    70    35    36 2   
    71    35    38 1   
    72    37    73 1   
    73    37    74 1   
    74    37    75 1   
    75    38    39 1   
    76    38    76 1   
    77    38    77 1   
@<TRIPOS>SUBSTRUCTURE
     1 FGK         1 TEMP              0 ****  ****    0 ROOT
