@<TRIPOS>MOLECULE
FGL
   11    10     1     0     0
SMALL
bcc


@<TRIPOS>ATOM
      1 N           20.1220    37.0800   -18.6150 n8         1 FGL      -0.893800
      2 CA          20.9480    37.9650   -19.4270 c3         1 FGL      -0.113500
      3 C           20.0610    39.0050   -20.1470 c          1 FGL       0.938100
      4 O           20.4100    40.2000   -20.1120 o          1 FGL      -0.880550
      5 OXT         19.0540    38.5410   -20.7280 o          1 FGL      -0.880550
      6 OG1         21.8300    35.9930   -20.4700 o          1 FGL      -0.880550
      7 OG2         22.4720    37.9750   -21.2610 o          1 FGL      -0.880550
      8 CB          21.8240    37.2410   -20.4870 c          1 FGL       0.938100
      9 H2          20.6110    36.1940   -18.5460 hn         1 FGL       0.314300
     10 H           19.2970    36.8700   -19.1660 hn         1 FGL       0.314300
     11 HA          21.6410    38.5060   -18.7690 h1         1 FGL       0.024700
@<TRIPOS>BOND
     1     1     2 1   
     2     1     9 1   
     3     1    10 1   
     4     2     3 1   
     5     2     8 1   
     6     2    11 1   
     7     3     4 1   
     8     3     5 1   
     9     6     8 1   
    10     7     8 1   
@<TRIPOS>SUBSTRUCTURE
     1 FGL         1 TEMP              0 ****  ****    0 ROOT
