@<TRIPOS>MOLECULE
FGL
   11    10     1     0     0
SMALL
No Charge or Current Charge


@<TRIPOS>ATOM
      1 N           20.1010    37.0450   -18.4880 n8         1 FGL      -0.893800
      2 CA          20.8930    37.9600   -19.4620 c3         1 FGL      -0.113500
      3 C           20.1070    39.0260   -20.2670 c          1 FGL       0.938100
      4 O           20.3160    40.2120   -20.0310 o          1 FGL      -0.880550
      5 OXT         19.1760    38.6670   -20.9820 o          1 FGL      -0.880550
      6 OG1         21.4450    36.1550   -20.9460 o          1 FGL      -0.880550
      7 OG2         22.7360    37.8650   -20.9870 o          1 FGL      -0.880550
      8 CB          21.7190    37.3010   -20.5980 c          1 FGL       0.938100
      9 H2          20.7350    36.3390   -18.0970 hn         1 FGL       0.314300
     10 H           19.4260    36.4970   -19.0350 hn         1 FGL       0.314300
     11 HA          21.6150    38.5020   -18.8350 h1         1 FGL       0.024700
@<TRIPOS>BOND
     1     1     2 1   
     2     1     9 1   
     3     1    10 1   
     4     2     3 1   
     5     2     8 1   
     6     2    11 1   
     7     3     4 1   
     8     3     5 1   
     9     6     8 1   
    10     7     8 1   
@<TRIPOS>SUBSTRUCTURE
     1 FGL         1 TEMP              0 ****  ****    0 ROOT
