@<TRIPOS>MOLECULE
FGM
   59    58     1     0     0
SMALL
bcc


@<TRIPOS>ATOM
      1 CBU         11.3830    -0.2600    -0.1130 c3         1 FGM      -0.087100
      2 CBV         10.0550     0.2690    -0.6360 c3         1 FGM      -0.075400
      3 CBW          8.8490    -0.4030     0.0100 c3         1 FGM      -0.075400
      4 CBX          7.5190     0.1260    -0.5100 c3         1 FGM      -0.075400
      5 CBY          6.3050    -0.5320     0.1360 c3         1 FGM      -0.073400
      6 CBZ          4.9850     0.0180    -0.3880 c3         1 FGM      -0.075400
      7 CCA          3.7560    -0.6110     0.2560 c3         1 FGM      -0.073400
      8 CCB          2.4520    -0.0200    -0.2630 c3         1 FGM      -0.077400
      9 CCC          1.2040    -0.6090     0.3820 c3         1 FGM      -0.066400
     10 CCD         -0.0740     0.0520    -0.1200 c3         1 FGM      -0.101400
     11 CCE         -1.3550    -0.5120     0.4960 c3         1 FGM       0.182100
     12 OCF         -1.3480    -0.4200     1.9030 oh         1 FGM      -0.667800
     13 CCG         -2.6030     0.1630    -0.1020 c3         1 FGM      -0.228700
     14 CCH         -3.8870    -0.5590     0.3270 c3         1 FGM      -0.042400
     15 CCI         -5.1520    -0.0360    -0.3440 c3         1 FGM      -0.074400
     16 CCJ         -6.3980    -0.8220     0.0430 c3         1 FGM      -0.074400
     17 CCK         -7.6660    -0.2950    -0.6170 c3         1 FGM      -0.076400
     18 CCL         -8.9250    -1.0480    -0.2040 c3         1 FGM      -0.076400
     19 CCM        -10.1840    -0.5080    -0.8690 c3         1 FGM      -0.086100
     20 CCQ         -2.6720     1.6500     0.2860 c          1 FGM       0.924600
     21 OCR         -2.4430     1.9130     1.5010 o          1 FGM      -0.832300
     22 OCS         -2.9650     2.4850    -0.5830 o          1 FGM      -0.832300
     23 HBU         11.4730    -0.1050     0.9640 hc         1 FGM       0.028700
     24 HBUA        11.4810    -1.3320    -0.2980 hc         1 FGM       0.028700
     25 HBUB        12.2290     0.2360    -0.5900 hc         1 FGM       0.028700
     26 HBV          9.9980     1.3490    -0.4680 hc         1 FGM       0.035700
     27 HBVA        10.0060     0.1300    -1.7210 hc         1 FGM       0.035700
     28 HBW          8.9030    -1.4840    -0.1570 hc         1 FGM       0.035200
     29 HBWA         8.8970    -0.2640     1.0960 hc         1 FGM       0.035200
     30 HBX          7.4710     1.2080    -0.3460 hc         1 FGM       0.035700
     31 HBXA         7.4720    -0.0150    -1.5950 hc         1 FGM       0.035700
     32 HBY          6.3450    -1.6140    -0.0320 hc         1 FGM       0.035200
     33 HBYA         6.3520    -0.3930     1.2220 hc         1 FGM       0.035200
     34 HBZ          4.9580     1.1010    -0.2280 hc         1 FGM       0.035200
     35 HBZA         4.9380    -0.1260    -1.4730 hc         1 FGM       0.035200
     36 HCA          3.7640    -1.6930     0.0830 hc         1 FGM       0.033200
     37 HCAA         3.8070    -0.4790     1.3430 hc         1 FGM       0.033200
     38 HCB          2.4610     1.0640    -0.0980 hc         1 FGM       0.033700
     39 HCBA         2.3990    -0.1550    -1.3490 hc         1 FGM       0.033700
     40 HCC          1.1640    -1.6870     0.1850 hc         1 FGM       0.035700
     41 HCCA         1.2690    -0.4990     1.4680 hc         1 FGM       0.035700
     42 HCD         -0.0130     1.1300     0.0700 hc         1 FGM       0.043200
     43 HCDA        -0.1360    -0.0600    -1.2080 hc         1 FGM       0.043200
     44 HCE         -1.4040    -1.5810     0.2420 h1         1 FGM       0.013700
     45 HOCF        -1.7050     0.4850     2.0640 ho         1 FGM       0.469000
     46 HCG         -2.5270     0.0880    -1.1920 hc         1 FGM       0.037700
     47 HCH         -3.7770    -1.6240     0.0940 hc         1 FGM       0.024700
     48 HCHA        -4.0000    -0.4970     1.4130 hc         1 FGM       0.024700
     49 HCI         -5.3040     1.0170    -0.0920 hc         1 FGM       0.049200
     50 HCIA        -5.0260    -0.0710    -1.4320 hc         1 FGM       0.049200
     51 HCJ         -6.2630    -1.8780    -0.2170 hc         1 FGM       0.026700
     52 HCJA        -6.5200    -0.7930     1.1320 hc         1 FGM       0.026700
     53 HCK         -7.7850     0.7670    -0.3750 hc         1 FGM       0.037200
     54 HCKA        -7.5560    -0.3450    -1.7060 hc         1 FGM       0.037200
     55 HCL         -8.8080    -2.1090    -0.4440 hc         1 FGM       0.031700
     56 HCLA        -9.0350    -0.9940     0.8840 hc         1 FGM       0.031700
     57 HCM        -10.3340     0.5460    -0.6280 hc         1 FGM       0.024700
     58 HCMA       -10.1220    -0.5900    -1.9560 hc         1 FGM       0.024700
     59 HCMB       -11.0720    -1.0520    -0.5470 hc         1 FGM       0.024700
@<TRIPOS>BOND
     1     1     2 1   
     2     1    23 1   
     3     1    24 1   
     4     1    25 1   
     5     2     3 1   
     6     2    26 1   
     7     2    27 1   
     8     3     4 1   
     9     3    28 1   
    10     3    29 1   
    11     4     5 1   
    12     4    30 1   
    13     4    31 1   
    14     5     6 1   
    15     5    32 1   
    16     5    33 1   
    17     6     7 1   
    18     6    34 1   
    19     6    35 1   
    20     7     8 1   
    21     7    36 1   
    22     7    37 1   
    23     8     9 1   
    24     8    38 1   
    25     8    39 1   
    26     9    10 1   
    27     9    40 1   
    28     9    41 1   
    29    10    11 1   
    30    10    42 1   
    31    10    43 1   
    32    11    12 1   
    33    11    13 1   
    34    11    44 1   
    35    12    45 1   
    36    13    14 1   
    37    13    20 1   
    38    13    46 1   
    39    14    15 1   
    40    14    47 1   
    41    14    48 1   
    42    15    16 1   
    43    15    49 1   
    44    15    50 1   
    45    16    17 1   
    46    16    51 1   
    47    16    52 1   
    48    17    18 1   
    49    17    53 1   
    50    17    54 1   
    51    18    19 1   
    52    18    55 1   
    53    18    56 1   
    54    19    57 1   
    55    19    58 1   
    56    19    59 1   
    57    20    21 1   
    58    20    22 1   
@<TRIPOS>SUBSTRUCTURE
     1 FGM         1 TEMP              0 ****  ****    0 ROOT
