@<TRIPOS>MOLECULE
FGM
   59    58     1     0     0
SMALL
No Charge or Current Charge


@<TRIPOS>ATOM
      1 CBU         11.5020    -0.6340    -0.2200 c3         1 FGM      -0.087100
      2 CBV         10.2020     0.0480    -0.6860 c3         1 FGM      -0.075400
      3 CBW          8.9350    -0.5660    -0.0500 c3         1 FGM      -0.075400
      4 CBX          7.6320     0.1180    -0.5170 c3         1 FGM      -0.075400
      5 CBY          6.3650    -0.4970     0.1180 c3         1 FGM      -0.073400
      6 CBZ          5.0620     0.1870    -0.3490 c3         1 FGM      -0.075400
      7 CCA          3.7950    -0.4270     0.2860 c3         1 FGM      -0.073400
      8 CCB          2.4920     0.2570    -0.1800 c3         1 FGM      -0.077400
      9 CCC          1.2250    -0.3580     0.4550 c3         1 FGM      -0.066400
     10 CCD         -0.0810     0.3280    -0.0150 c3         1 FGM      -0.101400
     11 CCE         -1.3710    -0.3030     0.5690 c3         1 FGM       0.205300
     12 OCF         -1.4050    -0.1000     1.9800 oh         1 FGM      -0.730000
     13 CCG         -2.6670     0.2920    -0.0380 c3         1 FGM      -0.228700
     14 CCH         -3.9350    -0.5150     0.3690 c3         1 FGM      -0.042400
     15 CCI         -5.2310    -0.0470    -0.3330 c3         1 FGM      -0.074400
     16 CCJ         -6.4630    -0.8970     0.0470 c3         1 FGM      -0.074400
     17 CCK         -7.7590    -0.4320    -0.6540 c3         1 FGM      -0.076400
     18 CCL         -8.9910    -1.2820    -0.2740 c3         1 FGM      -0.076400
     19 CCM        -10.2830    -0.8180    -0.9720 c3         1 FGM      -0.086100
     20 CCQ         -2.8100     1.7880     0.3040 c          1 FGM       0.714000
     21 OCR         -2.8390     2.0980     1.4880 o          1 FGM      -0.727000
     22 OCS         -2.8440     2.5960    -0.6110 o          1 FGM      -0.727000
     23 HBU         11.6180    -0.5470     0.8670 hc         1 FGM       0.028700
     24 HBUA        11.4990    -1.6980    -0.4850 hc         1 FGM       0.028700
     25 HBUB        12.3720    -0.1650    -0.6960 hc         1 FGM       0.028700
     26 HBV         10.2510     1.1160    -0.4380 hc         1 FGM       0.035700
     27 HBVA        10.1330    -0.0240    -1.7780 hc         1 FGM       0.035700
     28 HBW          8.8900    -1.6340    -0.2980 hc         1 FGM       0.035200
     29 HBWA         9.0090    -0.4940     1.0420 hc         1 FGM       0.035200
     30 HBX          7.6770     1.1860    -0.2690 hc         1 FGM       0.035700
     31 HBXA         7.5580     0.0450    -1.6100 hc         1 FGM       0.035700
     32 HBY          6.3200    -1.5650    -0.1300 hc         1 FGM       0.035200
     33 HBYA         6.4390    -0.4240     1.2100 hc         1 FGM       0.035200
     34 HBZ          5.1070     1.2550    -0.1010 hc         1 FGM       0.035200
     35 HBZA         4.9880     0.1150    -1.4410 hc         1 FGM       0.035200
     36 HCA          3.7500    -1.4950     0.0380 hc         1 FGM       0.033200
     37 HCAA         3.8690    -0.3550     1.3790 hc         1 FGM       0.033200
     38 HCB          2.5370     1.3250     0.0680 hc         1 FGM       0.033700
     39 HCBA         2.4190     0.1850    -1.2720 hc         1 FGM       0.033700
     40 HCC          1.1790    -1.4250     0.2060 hc         1 FGM       0.035700
     41 HCCA         1.3030    -0.2870     1.5470 hc         1 FGM       0.035700
     42 HCD         -0.0390     1.3940     0.2420 hc         1 FGM       0.043200
     43 HCDA        -0.1280     0.2700    -1.1090 hc         1 FGM       0.043200
     44 HCE         -1.3480    -1.3790     0.3470 h1         1 FGM       0.013700
     45 HOCF        -1.9330     0.7410     2.0740 ho         1 FGM       0.508000
     46 HCG         -2.5890     0.2060    -1.1290 hc         1 FGM       0.037700
     47 HCH         -3.7710    -1.5740     0.1310 hc         1 FGM       0.024700
     48 HCHA        -4.0790    -0.4570     1.4550 hc         1 FGM       0.024700
     49 HCI         -5.4290     1.0000    -0.0760 hc         1 FGM       0.049200
     50 HCIA        -5.0870    -0.0890    -1.4200 hc         1 FGM       0.049200
     51 HCJ         -6.2710    -1.9460    -0.2120 hc         1 FGM       0.026700
     52 HCJA        -6.6070    -0.8560     1.1340 hc         1 FGM       0.026700
     53 HCK         -7.9510     0.6170    -0.3950 hc         1 FGM       0.037200
     54 HCKA        -7.6150    -0.4720    -1.7410 hc         1 FGM       0.037200
     55 HCL         -8.8030    -2.3310    -0.5330 hc         1 FGM       0.031700
     56 HCLA        -9.1390    -1.2420     0.8130 hc         1 FGM       0.031700
     57 HCM        -10.5180     0.2190    -0.7050 hc         1 FGM       0.024700
     58 HCMA       -10.1790    -0.8800    -2.0620 hc         1 FGM       0.024700
     59 HCMB       -11.1270    -1.4500    -0.6720 hc         1 FGM       0.024700
@<TRIPOS>BOND
     1     1     2 1   
     2     1    23 1   
     3     1    24 1   
     4     1    25 1   
     5     2     3 1   
     6     2    26 1   
     7     2    27 1   
     8     3     4 1   
     9     3    28 1   
    10     3    29 1   
    11     4     5 1   
    12     4    30 1   
    13     4    31 1   
    14     5     6 1   
    15     5    32 1   
    16     5    33 1   
    17     6     7 1   
    18     6    34 1   
    19     6    35 1   
    20     7     8 1   
    21     7    36 1   
    22     7    37 1   
    23     8     9 1   
    24     8    38 1   
    25     8    39 1   
    26     9    10 1   
    27     9    40 1   
    28     9    41 1   
    29    10    11 1   
    30    10    42 1   
    31    10    43 1   
    32    11    12 1   
    33    11    13 1   
    34    11    44 1   
    35    12    45 1   
    36    13    14 1   
    37    13    20 1   
    38    13    46 1   
    39    14    15 1   
    40    14    47 1   
    41    14    48 1   
    42    15    16 1   
    43    15    49 1   
    44    15    50 1   
    45    16    17 1   
    46    16    51 1   
    47    16    52 1   
    48    17    18 1   
    49    17    53 1   
    50    17    54 1   
    51    18    19 1   
    52    18    55 1   
    53    18    56 1   
    54    19    57 1   
    55    19    58 1   
    56    19    59 1   
    57    20    21 1   
    58    20    22 1   
@<TRIPOS>SUBSTRUCTURE
     1 FGM         1 TEMP              0 ****  ****    0 ROOT
