@<TRIPOS>MOLECULE
FGN
   35    36     1     0     0
SMALL
No Charge or Current Charge


@<TRIPOS>ATOM
      1 C1           3.5550     0.2520     0.0080 ce         1 FGN      -0.325200
      2 C2           2.2830    -0.2500     0.0090 cf         1 FGN      -0.047200
      3 C3           1.8280    -1.6640     0.0170 ca         1 FGN      -0.109800
      4 C4           2.7650    -2.7220     0.0240 ca         1 FGN      -0.057000
      5 C5           2.3380    -4.0600     0.0310 ca         1 FGN      -0.152000
      6 C6           0.9710    -4.3640     0.0310 ca         1 FGN      -0.056000
      7 C7           0.0250    -3.3280     0.0240 ca         1 FGN      -0.201000
      8 C8           0.4440    -1.9770     0.0170 ca         1 FGN       0.170100
      9 C9          -1.8920    -1.1570     0.0100 c3         1 FGN       0.211900
     10 O1          -0.4700    -0.9410     0.0100 os         1 FGN      -0.335100
     11 C10         -2.5810     0.2060     0.0010 ca         1 FGN      -0.083300
     12 C11         -2.8970     0.8470    -1.2200 ca         1 FGN       0.148000
     13 C12         -3.5280     2.1020    -1.2240 ca         1 FGN      -0.105500
     14 C13         -3.8490     2.7380    -0.0150 ca         1 FGN      -0.081000
     15 C14         -3.5300     2.1170     1.2020 ca         1 FGN      -0.105500
     16 C15         -2.8990     0.8610     1.2140 ca         1 FGN       0.148000
     17 N            5.2440     1.9800     0.0020 ns         1 FGN      -0.382400
     18 C            3.8840     1.7030     0.0010 c          1 FGN       0.604300
     19 O            3.0280     2.5780     0.0030 o          1 FGN      -0.572100
     20 O2           5.7360     3.3170    -0.2580 oh         1 FGN      -0.433100
     21 Cl          -2.5050     0.1120    -2.7770 cl         1 FGN      -0.188500
     22 Cl1         -2.5090     0.1450     2.7800 cl         1 FGN      -0.188500
     23 H1           4.4060    -0.4230     0.0130 ha         1 FGN       0.175000
     24 H2           1.4740     0.4850     0.0040 ha         1 FGN       0.214000
     25 H3           3.8320    -2.5220     0.0240 ha         1 FGN       0.113000
     26 H4           3.0720    -4.8630     0.0360 ha         1 FGN       0.118000
     27 H5           0.6440    -5.4020     0.0370 ha         1 FGN       0.114000
     28 H6          -1.0270    -3.5950     0.0240 ha         1 FGN       0.120000
     29 H7          -2.1950    -1.7410    -0.8680 h1         1 FGN       0.056200
     30 H8          -2.1970    -1.7300     0.8930 h1         1 FGN       0.056200
     31 H9          -3.7670     2.5840    -2.1690 ha         1 FGN       0.136500
     32 H10         -4.3370     3.7110    -0.0210 ha         1 FGN       0.126000
     33 H11         -3.7710     2.6100     2.1410 ha         1 FGN       0.136500
     34 H12          5.9060     1.2200    -0.1470 hn         1 FGN       0.327500
     35 H13          6.3700     3.4780     0.4800 ho         1 FGN       0.447000
@<TRIPOS>BOND
     1     1     2 2   
     2     1    18 1   
     3     1    23 1   
     4     2     3 1   
     5     2    24 1   
     6     3     4 ar  
     7     3     8 ar  
     8     4     5 ar  
     9     4    25 1   
    10     5     6 ar  
    11     5    26 1   
    12     6     7 ar  
    13     6    27 1   
    14     7     8 ar  
    15     7    28 1   
    16     8    10 1   
    17     9    10 1   
    18     9    11 1   
    19     9    29 1   
    20     9    30 1   
    21    11    12 ar  
    22    11    16 ar  
    23    12    13 ar  
    24    12    21 1   
    25    13    14 ar  
    26    13    31 1   
    27    14    15 ar  
    28    14    32 1   
    29    15    16 ar  
    30    15    33 1   
    31    16    22 1   
    32    17    18 1   
    33    17    20 1   
    34    17    34 1   
    35    18    19 2   
    36    20    35 1   
@<TRIPOS>SUBSTRUCTURE
     1 FGN         1 TEMP              0 ****  ****    0 ROOT
