@<TRIPOS>MOLECULE
FGN
   35    36     1     0     0
SMALL
bcc


@<TRIPOS>ATOM
      1 C1           3.4450     0.2100    -0.0850 ce         1 FGN      -0.275200
      2 C2           2.1890    -0.2480    -0.0920 cf         1 FGN       0.002800
      3 C3           1.7860    -1.6490    -0.0240 ca         1 FGN      -0.109800
      4 C4           2.6920    -2.6940    -0.2150 ca         1 FGN      -0.075000
      5 C5           2.2950    -4.0190    -0.1820 ca         1 FGN      -0.170000
      6 C6           0.9600    -4.3220     0.0460 ca         1 FGN      -0.074000
      7 C7           0.0320    -3.3110     0.2440 ca         1 FGN      -0.219000
      8 C8           0.4380    -1.9800     0.2150 ca         1 FGN       0.170100
      9 C9          -1.7970    -1.1680     0.2950 c3         1 FGN       0.188700
     10 O1          -0.4020    -0.9510     0.4310 os         1 FGN      -0.311900
     11 C10         -2.4410     0.1820     0.1950 ca         1 FGN      -0.083300
     12 C11         -2.2510     0.9680    -0.9430 ca         1 FGN       0.056400
     13 C12         -2.8190     2.2210    -1.0870 ca         1 FGN      -0.123500
     14 C13         -3.6060     2.7230    -0.0620 ca         1 FGN      -0.099000
     15 C14         -3.8150     1.9830     1.0880 ca         1 FGN      -0.123500
     16 C15         -3.2300     0.7310     1.2050 ca         1 FGN       0.056400
     17 N            5.0360     1.9440    -0.1630 ns         1 FGN      -0.449400
     18 C            3.7130     1.6600    -0.1910 c          1 FGN       0.671300
     19 O            2.8470     2.5170    -0.2590 o          1 FGN      -0.572100
     20 O2           5.4530     3.2070    -0.4540 oh         1 FGN      -0.394100
     21 CL          -1.2740     0.3650    -2.2390 cl         1 FGN      -0.096900
     22 CL1         -3.5130    -0.1450     2.6740 cl         1 FGN      -0.096900
     23 H1           4.2960    -0.4580     0.0000 ha         1 FGN       0.125000
     24 H2           1.3930     0.4840    -0.1600 ha         1 FGN       0.164000
     25 H3           3.7310    -2.4660    -0.4170 ha         1 FGN       0.131000
     26 H4           3.0180    -4.8070    -0.3410 ha         1 FGN       0.136000
     27 H5           0.6320    -5.3530     0.0740 ha         1 FGN       0.132000
     28 H6          -1.0000    -3.5720     0.4340 ha         1 FGN       0.138000
     29 H7          -2.0100    -1.7490    -0.6080 h1         1 FGN       0.056200
     30 H8          -2.1870    -1.7310     1.1440 h1         1 FGN       0.056200
     31 H9          -2.6520     2.7990    -1.9850 ha         1 FGN       0.154500
     32 H10         -4.0570     3.7010    -0.1620 ha         1 FGN       0.144000
     33 H11         -4.4260     2.3760     1.8890 ha         1 FGN       0.154500
     34 H12          5.7330     1.2310    -0.3250 hn         1 FGN       0.327500
     35 H13          5.6450     3.6270     0.3940 ho         1 FGN       0.408000
@<TRIPOS>BOND
     1     1     2 2   
     2     1    18 1   
     3     1    23 1   
     4     2     3 1   
     5     2    24 1   
     6     3     4 ar  
     7     3     8 ar  
     8     4     5 ar  
     9     4    25 1   
    10     5     6 ar  
    11     5    26 1   
    12     6     7 ar  
    13     6    27 1   
    14     7     8 ar  
    15     7    28 1   
    16     8    10 1   
    17     9    10 1   
    18     9    11 1   
    19     9    29 1   
    20     9    30 1   
    21    11    12 ar  
    22    11    16 ar  
    23    12    13 ar  
    24    12    21 1   
    25    13    14 ar  
    26    13    31 1   
    27    14    15 ar  
    28    14    32 1   
    29    15    16 ar  
    30    15    33 1   
    31    16    22 1   
    32    17    18 1   
    33    17    20 1   
    34    17    34 1   
    35    18    19 2   
    36    20    35 1   
@<TRIPOS>SUBSTRUCTURE
     1 FGN         1 TEMP              0 ****  ****    0 ROOT
