@<TRIPOS>MOLECULE
FGO
   70    75     1     0     0
SMALL
abcg2


@<TRIPOS>ATOM
      1 C10         22.6380    -5.9780    28.3980 c5         1 FGO       0.141300
      2 C11         21.9950    -8.0280    27.6640 c5         1 FGO       0.309300
      3 C12         21.7560   -10.5200    27.7210 cc         1 FGO       0.146400
      4 C13         20.9640   -11.3680    28.4730 cd         1 FGO       0.089500
      5 C14         20.4740    -9.4140    29.1110 cc         1 FGO       0.423400
      6 C15         21.0730   -12.7740    28.2620 c          1 FGO       0.523500
      7 C16         22.7580   -12.1280    26.5780 cd         1 FGO       0.728800
      8 C17         20.9750    -7.0740    27.0170 c5         1 FGO      -0.110700
      9 C18         21.4030    -5.6820    27.5390 c5         1 FGO      -0.092700
     10 C21         21.0320    -7.0000    25.4910 c5         1 FGO      -0.135400
     11 O12         26.1380    -4.8590    31.3490 o          1 FGO      -0.802000
     12 P           25.1090    -4.2440    30.4550 p5         1 FGO       1.379800
     13 O11         24.5210    -2.8930    30.7000 o          1 FGO      -0.802000
     14 O           25.6650    -4.1810    28.9020 os         1 FGO      -0.575400
     15 C           26.3150    -5.2950    28.3340 c5         1 FGO       0.187300
     16 C3          27.8000    -5.3670    28.7300 c5         1 FGO       0.135300
     17 C4          28.3230    -6.7700    28.9390 c3         1 FGO       0.141600
     18 O3          28.0600    -7.5550    27.7990 oh         1 FGO      -0.743000
     19 O2          28.5350    -4.7140    27.6860 os         1 FGO      -0.472000
     20 C2          27.6720    -4.2580    26.6920 c5         1 FGO       0.328700
     21 N           28.3330    -4.3890    25.4010 n          1 FGO      -0.303000
     22 C8          28.9070    -5.5820    25.0610 cc         1 FGO       0.030600
     23 C7          29.5270    -5.7930    23.8890 cd         1 FGO      -0.427200
     24 C6          29.6020    -4.7270    22.9200 c          1 FGO       0.597200
     25 O5          30.1190    -4.7900    21.8220 o          1 FGO      -0.561000
     26 N1          29.0060    -3.5510    23.3520 ns         1 FGO      -0.476500
     27 C5          28.3680    -3.3080    24.5410 c          1 FGO       0.624000
     28 O4          27.8820    -2.2280    24.8000 o          1 FGO      -0.542000
     29 C1          26.4000    -5.0950    26.8140 c5         1 FGO       0.135300
     30 O1          25.3450    -4.4370    26.1940 oh         1 FGO      -0.698000
     31 C9          22.7320    -5.1150    29.6320 c3         1 FGO       0.232600
     32 C19         21.6700    -4.8300    26.3000 c5         1 FGO      -0.092400
     33 C20         21.9780    -5.8310    25.1820 c5         1 FGO       0.401000
     34 O9          23.3180    -6.2210    25.3230 oh         1 FGO      -0.664500
     35 O10         21.8550    -5.3140    23.8900 oh         1 FGO      -0.664500
     36 O7          22.5300    -7.3450    28.7630 os         1 FGO      -0.426000
     37 N2          21.4310    -9.2660    28.1370 na         1 FGO      -0.169500
     38 N3          20.1720   -10.6550    29.3370 nd         1 FGO      -0.613000
     39 N5          22.6550   -10.8380    26.7800 nc         1 FGO      -0.701100
     40 N6          23.5930   -12.5940    25.6380 nv         1 FGO      -1.053200
     41 N4          22.0190   -13.0480    27.2640 ns         1 FGO      -0.460400
     42 O8          20.4750   -13.6810    28.8140 o          1 FGO      -0.528000
     43 H1          23.5440    -5.8330    27.8020 h1         1 FGO       0.069700
     44 H2          22.7760    -8.3060    26.9470 h2         1 FGO       0.083700
     45 H3          20.0450    -8.5620    29.6160 h5         1 FGO       0.069100
     46 H4          19.9700    -7.3320    27.3530 hc         1 FGO       0.067700
     47 H5          20.6200    -5.2410    28.1590 hc         1 FGO       0.069700
     48 H6          20.0380    -6.7700    25.1010 hc         1 FGO       0.054700
     49 H7          21.3490    -7.9340    25.0170 hc         1 FGO       0.054700
     50 H9          25.7940    -6.2250    28.5870 h1         1 FGO       0.061700
     51 H10         27.9600    -4.8220    29.6620 h1         1 FGO       0.121700
     52 H11         27.8290    -7.1690    29.8330 h1         1 FGO       0.042200
     53 H12         29.3970    -6.7210    29.1590 h1         1 FGO       0.042200
     54 H13         28.4150    -8.4370    27.9420 ho         1 FGO       0.495000
     55 H14         27.4340    -3.1980    26.8160 h2         1 FGO       0.126700
     56 H15         28.8390    -6.3630    25.8070 h4         1 FGO       0.230000
     57 H16         29.9670    -6.7520    23.6650 ha         1 FGO       0.209000
     58 H17         29.0310    -2.7660    22.7120 hn         1 FGO       0.331500
     59 H18         26.5790    -6.0830    26.3730 h1         1 FGO       0.034700
     60 H19         24.6970    -5.0860    25.8760 ho         1 FGO       0.525000
     61 H20         22.6590    -4.0690    29.3200 h1         1 FGO       0.039700
     62 H21         21.8740    -5.3130    30.2840 h1         1 FGO       0.039700
     63 H22         22.4680    -4.0960    26.4410 hc         1 FGO       0.074200
     64 H23         20.7690    -4.2760    26.0270 hc         1 FGO       0.074200
     65 H24         23.5070    -6.9750    24.7500 ho         1 FGO       0.457500
     66 H25         20.9300    -5.1040    23.7160 ho         1 FGO       0.457500
     67 H26         24.2430   -11.9450    25.2270 hn         1 FGO       0.498500
     68 H27         23.8470   -13.5660    25.6020 hn         1 FGO       0.498500
     69 H28         22.1480   -14.0280    27.0440 hn         1 FGO       0.315500
     70 O6          23.9190    -5.3750    30.3500 os         1 FGO      -0.586400
@<TRIPOS>BOND
     1     1     9 1   
     2     1    31 1   
     3     1    36 1   
     4     1    43 1   
     5     2     8 1   
     6     2    36 1   
     7     2    37 1   
     8     2    44 1   
     9     3     4 2   
    10     3    37 1   
    11     3    39 1   
    12     4     6 1   
    13     4    38 1   
    14     5    37 1   
    15     5    38 2   
    16     5    45 1   
    17     6    41 1   
    18     6    42 2   
    19     7    39 2   
    20     7    40 1   
    21     7    41 1   
    22     8     9 1   
    23     8    10 1   
    24     8    46 1   
    25     9    32 1   
    26     9    47 1   
    27    10    33 1   
    28    10    48 1   
    29    10    49 1   
    30    11    12 1   
    31    12    13 1   
    32    12    14 1   
    33    12    70 1   
    34    14    15 1   
    35    15    16 1   
    36    15    29 1   
    37    15    50 1   
    38    16    17 1   
    39    16    19 1   
    40    16    51 1   
    41    17    18 1   
    42    17    52 1   
    43    17    53 1   
    44    18    54 1   
    45    19    20 1   
    46    20    21 1   
    47    20    29 1   
    48    20    55 1   
    49    21    22 1   
    50    21    27 1   
    51    22    23 2   
    52    22    56 1   
    53    23    24 1   
    54    23    57 1   
    55    24    25 2   
    56    24    26 1   
    57    26    27 1   
    58    26    58 1   
    59    27    28 2   
    60    29    30 1   
    61    29    59 1   
    62    30    60 1   
    63    31    61 1   
    64    31    62 1   
    65    31    70 1   
    66    32    33 1   
    67    32    63 1   
    68    32    64 1   
    69    33    34 1   
    70    33    35 1   
    71    34    65 1   
    72    35    66 1   
    73    40    67 1   
    74    40    68 1   
    75    41    69 1   
@<TRIPOS>SUBSTRUCTURE
     1 FGO         1 TEMP              0 ****  ****    0 ROOT
