@<TRIPOS>MOLECULE
FGO
   70    75     1     0     0
SMALL
No Charge or Current Charge


@<TRIPOS>ATOM
      1 C10         22.5550    -5.9180    28.4450 c5         1 FGO       0.141300
      2 C11         21.7150    -7.9200    27.6880 c5         1 FGO       0.309300
      3 C12         21.6480   -10.4450    27.7930 cc         1 FGO       0.146400
      4 C13         20.7380   -11.3610    28.2650 cd         1 FGO       0.089500
      5 C14         19.9090    -9.4060    28.6690 cc         1 FGO       0.423400
      6 C15         21.0340   -12.8170    28.1170 c          1 FGO       0.523500
      7 C16         23.0390   -12.0510    27.0700 cd         1 FGO       0.728800
      8 C17         20.7690    -6.8600    27.0320 c5         1 FGO      -0.110700
      9 C18         21.3330    -5.5010    27.5580 c5         1 FGO      -0.092700
     10 C21         20.9940    -6.8410    25.4780 c5         1 FGO      -0.135400
     11 O12         26.3770    -4.9810    31.2430 o          1 FGO      -0.802000
     12 P           25.3030    -4.4110    30.3810 p5         1 FGO       1.379800
     13 O11         24.8750    -3.0670    30.8630 o          1 FGO      -0.802000
     14 O           25.7270    -4.3670    28.8200 os         1 FGO      -0.575400
     15 C           26.3200    -5.5490    28.2050 c5         1 FGO       0.187300
     16 C3          27.8330    -5.6860    28.6550 c5         1 FGO       0.135300
     17 C4          28.2740    -7.1380    28.9930 c3         1 FGO       0.141600
     18 O3          27.9430    -8.0620    27.9350 oh         1 FGO      -0.743000
     19 O2          28.6430    -5.1810    27.5570 os         1 FGO      -0.472000
     20 C2          27.7650    -4.4480    26.6890 c5         1 FGO       0.328700
     21 N           28.3400    -4.3650    25.3200 n          1 FGO      -0.303000
     22 C8          28.7480    -5.5240    24.6550 cc         1 FGO       0.030600
     23 C7          29.1950    -5.4260    23.3580 cd         1 FGO      -0.427200
     24 C6          29.2520    -4.1450    22.6540 c          1 FGO       0.597200
     25 O5          29.6410    -4.0140    21.5080 o          1 FGO      -0.561000
     26 N1          28.8270    -3.0970    23.4040 ns         1 FGO      -0.476500
     27 C5          28.3690    -3.1090    24.6860 c          1 FGO       0.624000
     28 O4          28.0170    -2.0730    25.2250 o          1 FGO      -0.542000
     29 C1          26.4620    -5.3010    26.6590 c5         1 FGO       0.135300
     30 O1          25.3390    -4.6510    26.0280 oh         1 FGO      -0.698000
     31 C9          22.8200    -5.0040    29.6720 c3         1 FGO       0.232600
     32 C19         21.8460    -4.7460    26.2840 c5         1 FGO      -0.092400
     33 C20         22.1780    -5.8610    25.2480 c5         1 FGO       0.401000
     34 O9          23.4340    -6.4580    25.4580 oh         1 FGO      -0.664500
     35 O10         22.1770    -5.3420    23.9470 oh         1 FGO      -0.664500
     36 O7          22.1990    -7.2520    28.8620 os         1 FGO      -0.426000
     37 N2          21.1310    -9.2040    28.0570 na         1 FGO      -0.169500
     38 N3          19.6450   -10.7020    28.8180 nd         1 FGO      -0.613000
     39 N5          22.8390   -10.7600    27.1670 nc         1 FGO      -0.701100
     40 N6          24.1690   -12.4060    26.4870 nv         1 FGO      -1.053200
     41 N4          22.2300   -13.0400    27.4990 ns         1 FGO      -0.460400
     42 O8          20.3140   -13.7340    28.4880 o          1 FGO      -0.528000
     43 H1          23.4820    -5.9770    27.8660 h1         1 FGO       0.069700
     44 H2          22.5650    -8.1500    27.0360 h2         1 FGO       0.083700
     45 H3          19.2770    -8.5850    28.9860 h5         1 FGO       0.069100
     46 H4          19.7160    -7.0020    27.2990 hc         1 FGO       0.067700
     47 H5          20.5880    -4.9250    28.1210 hc         1 FGO       0.069700
     48 H6          20.0890    -6.4680    24.9840 hc         1 FGO       0.054700
     49 H7          21.1770    -7.8400    25.0650 hc         1 FGO       0.054700
     50 H9          25.7200    -6.4390    28.4370 h1         1 FGO       0.061700
     51 H10         28.0530    -5.0630    29.5300 h1         1 FGO       0.121700
     52 H11         27.7790    -7.4400    29.9260 h1         1 FGO       0.042200
     53 H12         29.3570    -7.1400    29.1820 h1         1 FGO       0.042200
     54 H13         28.3210    -8.9370    28.1860 ho         1 FGO       0.495000
     55 H14         27.5710    -3.4410    27.0830 h2         1 FGO       0.126700
     56 H15         28.6920    -6.4320    25.2550 h4         1 FGO       0.230000
     57 H16         29.5320    -6.2850    22.7910 ha         1 FGO       0.209000
     58 H17         28.8500    -2.1960    22.9550 hn         1 FGO       0.331500
     59 H18         26.6450    -6.2610    26.1600 h1         1 FGO       0.034700
     60 H19         24.6550    -5.3520    25.8300 ho         1 FGO       0.525000
     61 H20         22.8720    -3.9630    29.3260 h1         1 FGO       0.039700
     62 H21         21.9820    -5.0860    30.3760 h1         1 FGO       0.039700
     63 H22         22.6970    -4.0880    26.4890 hc         1 FGO       0.074200
     64 H23         21.0520    -4.0990    25.8950 hc         1 FGO       0.074200
     65 H24         23.3950    -7.3230    24.9990 ho         1 FGO       0.457500
     66 H25         21.8000    -6.0420    23.3750 ho         1 FGO       0.457500
     67 H26         24.8140   -11.6360    26.3690 hn         1 FGO       0.498500
     68 H27         24.5870   -13.2780    26.7830 hn         1 FGO       0.498500
     69 H28         22.4870   -14.0010    27.3460 hn         1 FGO       0.315500
     70 O6          24.0490    -5.4150    30.2920 os         1 FGO      -0.586400
@<TRIPOS>BOND
     1     1     9 1   
     2     1    31 1   
     3     1    36 1   
     4     1    43 1   
     5     2     8 1   
     6     2    36 1   
     7     2    37 1   
     8     2    44 1   
     9     3     4 2   
    10     3    37 1   
    11     3    39 1   
    12     4     6 1   
    13     4    38 1   
    14     5    37 1   
    15     5    38 2   
    16     5    45 1   
    17     6    41 1   
    18     6    42 2   
    19     7    39 2   
    20     7    40 1   
    21     7    41 1   
    22     8     9 1   
    23     8    10 1   
    24     8    46 1   
    25     9    32 1   
    26     9    47 1   
    27    10    33 1   
    28    10    48 1   
    29    10    49 1   
    30    11    12 1   
    31    12    13 1   
    32    12    14 1   
    33    12    70 1   
    34    14    15 1   
    35    15    16 1   
    36    15    29 1   
    37    15    50 1   
    38    16    17 1   
    39    16    19 1   
    40    16    51 1   
    41    17    18 1   
    42    17    52 1   
    43    17    53 1   
    44    18    54 1   
    45    19    20 1   
    46    20    21 1   
    47    20    29 1   
    48    20    55 1   
    49    21    22 1   
    50    21    27 1   
    51    22    23 2   
    52    22    56 1   
    53    23    24 1   
    54    23    57 1   
    55    24    25 2   
    56    24    26 1   
    57    26    27 1   
    58    26    58 1   
    59    27    28 2   
    60    29    30 1   
    61    29    59 1   
    62    30    60 1   
    63    31    61 1   
    64    31    62 1   
    65    31    70 1   
    66    32    33 1   
    67    32    63 1   
    68    32    64 1   
    69    33    34 1   
    70    33    35 1   
    71    34    65 1   
    72    35    66 1   
    73    40    67 1   
    74    40    68 1   
    75    41    69 1   
@<TRIPOS>SUBSTRUCTURE
     1 FGO         1 TEMP              0 ****  ****    0 ROOT
