@<TRIPOS>MOLECULE
FGQ
   34    36     1     0     0
SMALL
No Charge or Current Charge


@<TRIPOS>ATOM
      1 C4           0.7610     0.7780    -0.6090 ca         1 FGQ      -0.278500
      2 C5           1.1540    -0.5810    -0.4200 ca         1 FGQ       0.033000
      3 C6           2.3670    -0.8830     0.2700 ca         1 FGQ       0.184000
      4 C8           2.0380    -3.1840     0.0260 ca         1 FGQ       0.358900
      5 C10          0.3820    -1.6740    -0.8870 ca         1 FGQ      -0.070000
      6 C13         -3.0490    -0.3080    -0.9960 ca         1 FGQ      -0.011500
      7 C15         -4.0940    -0.5590     1.1970 ca         1 FGQ      -0.017300
      8 C17         -2.1180     0.8510     0.9370 ca         1 FGQ      -0.011500
      9 C1           3.1640     0.1780     0.7580 ca         1 FGQ       0.188100
     10 C12         -2.0750     0.5480    -0.4380 ca         1 FGQ      -0.273500
     11 C14         -4.0500    -0.8580    -0.1770 ca         1 FGQ      -0.131000
     12 C16         -3.1230     0.2970     1.7490 ca         1 FGQ      -0.131000
     13 C2           2.7710     1.5130     0.5730 ca         1 FGQ       0.086000
     14 C3           1.5820     1.8120    -0.1020 ca         1 FGQ       0.010000
     15 C9           0.8350    -2.9830    -0.6590 ca         1 FGQ      -0.139000
     16 F21          3.5380     2.5260     1.0440 f          1 FGQ      -0.158000
     17 N7           2.7940    -2.1610     0.4830 nb         1 FGQ      -0.690000
     18 O22          4.3260    -0.1290     1.4190 oh         1 FGQ      -0.494100
     19 S11         -0.7690     1.2590    -1.4620 sy         1 FGQ       1.032000
     20 H1           2.4110    -4.1900     0.2150 h4         1 FGQ       0.027100
     21 H2          -0.5520    -1.5450    -1.4200 ha         1 FGQ       0.139000
     22 H3          -3.0360    -0.5510    -2.0570 ha         1 FGQ       0.132500
     23 H4          -1.3740     1.5110     1.3810 ha         1 FGQ       0.132500
     24 H5          -4.7950    -1.5190    -0.6150 ha         1 FGQ       0.119000
     25 H6          -3.1440     0.5340     2.8100 ha         1 FGQ       0.119000
     26 H7          -4.8510    -2.1200     2.4970 hc         1 FGQ       0.050367
     27 H8          -5.4250    -0.4970     2.9160 hc         1 FGQ       0.050367
     28 H9          -6.1000    -1.3360     1.5150 hc         1 FGQ       0.050367
     29 H10          1.3130     2.8590    -0.2260 ha         1 FGQ       0.165000
     30 H11          0.2610    -3.8370    -1.0070 ha         1 FGQ       0.132000
     31 H12          4.3620    -1.1150     1.4120 ho         1 FGQ       0.507000
     32 C18         -5.1770    -1.1600     2.0790 c3         1 FGQ      -0.058800
     33 O19         -0.8900     2.7200    -1.3720 o          1 FGQ      -0.526000
     34 O20         -0.8020     0.5890    -2.7690 o          1 FGQ      -0.526000
@<TRIPOS>BOND
     1     1     2 ar  
     2     1    14 ar  
     3     1    19 1   
     4     2     3 ar  
     5     2     5 ar  
     6     3     9 ar  
     7     3    17 ar  
     8     4    15 ar  
     9     4    17 ar  
    10     4    20 1   
    11     5    15 ar  
    12     5    21 1   
    13     6    10 ar  
    14     6    11 ar  
    15     6    22 1   
    16     7    11 ar  
    17     7    12 ar  
    18     7    32 1   
    19     8    10 ar  
    20     8    12 ar  
    21     8    23 1   
    22     9    13 ar  
    23     9    18 1   
    24    10    19 1   
    25    11    24 1   
    26    12    25 1   
    27    13    14 ar  
    28    13    16 1   
    29    14    29 1   
    30    15    30 1   
    31    18    31 1   
    32    19    33 2   
    33    19    34 2   
    34    26    32 1   
    35    27    32 1   
    36    28    32 1   
@<TRIPOS>SUBSTRUCTURE
     1 FGQ         1 TEMP              0 ****  ****    0 ROOT
