@<TRIPOS>MOLECULE
FGQ
   34    36     1     0     0
SMALL
bcc


@<TRIPOS>ATOM
      1 C4           0.7130     0.7020    -0.5500 ca         1 FGQ      -0.278500
      2 C5           1.1470    -0.6480    -0.4850 ca         1 FGQ      -0.032300
      3 C6           2.3600    -0.9140     0.1900 ca         1 FGQ       0.314600
      4 C8           2.2320    -3.1630    -0.1600 ca         1 FGQ       0.424200
      5 C10          0.4760    -1.7750    -1.0160 ca         1 FGQ      -0.088000
      6 C13         -2.9830    -0.3910    -0.8960 ca         1 FGQ      -0.029500
      7 C15         -4.1420    -0.4600     1.2290 ca         1 FGQ      -0.017300
      8 C17         -2.1770     0.9270     0.9630 ca         1 FGQ      -0.029500
      9 C1           3.1280     0.1350     0.7700 ca         1 FGQ       0.122800
     10 C12         -2.0680     0.4970    -0.3560 ca         1 FGQ      -0.273500
     11 C14         -4.0150    -0.8630    -0.0970 ca         1 FGQ      -0.149000
     12 C16         -3.2060     0.4400     1.7450 ca         1 FGQ      -0.149000
     13 C2           2.6550     1.4170     0.6660 ca         1 FGQ       0.050900
     14 C3           1.4590     1.7070     0.0150 ca         1 FGQ      -0.008000
     15 C9           1.0130    -3.0210    -0.8490 ca         1 FGQ      -0.222300
     16 F21          3.3570     2.4190     1.2070 f          1 FGQ      -0.122900
     17 N7           2.8820    -2.1460     0.3380 nb         1 FGQ      -0.690000
     18 O22          4.2640    -0.1350     1.3940 oh         1 FGQ      -0.455100
     19 S11         -0.7860     1.1740    -1.3680 sy         1 FGQ       1.173600
     20 H1           2.6710    -4.1440    -0.0250 h4         1 FGQ       0.027100
     21 H2          -0.4500    -1.6720    -1.5600 ha         1 FGQ       0.157000
     22 H3          -2.9070    -0.7160    -1.9250 ha         1 FGQ       0.150500
     23 H4          -1.4660     1.6260     1.3860 ha         1 FGQ       0.150500
     24 H5          -4.7320    -1.5550    -0.5200 ha         1 FGQ       0.137000
     25 H6          -3.2890     0.7700     2.7730 ha         1 FGQ       0.137000
     26 H7          -4.8470    -1.6210     2.8870 hc         1 FGQ       0.050367
     27 H8          -5.7790    -0.1660     2.5860 hc         1 FGQ       0.050367
     28 H9          -5.9660    -1.5640     1.5260 hc         1 FGQ       0.050367
     29 H10          1.1340     2.7390    -0.0290 ha         1 FGQ       0.183000
     30 H11          0.5160    -3.8950    -1.2430 ha         1 FGQ       0.150000
     31 H12          4.4030    -1.0970     1.3470 ho         1 FGQ       0.468000
     32 C18         -5.2450    -0.9810     2.0970 c3         1 FGQ      -0.058800
     33 O19         -0.8790     2.6290    -1.2980 o          1 FGQ      -0.596800
     34 O20         -0.8380     0.5320    -2.6780 o          1 FGQ      -0.596800
@<TRIPOS>BOND
     1     1     2 ar  
     2     1    14 ar  
     3     1    19 1   
     4     2     3 ar  
     5     2     5 ar  
     6     3     9 ar  
     7     3    17 ar  
     8     4    15 ar  
     9     4    17 ar  
    10     4    20 1   
    11     5    15 ar  
    12     5    21 1   
    13     6    10 ar  
    14     6    11 ar  
    15     6    22 1   
    16     7    11 ar  
    17     7    12 ar  
    18     7    32 1   
    19     8    10 ar  
    20     8    12 ar  
    21     8    23 1   
    22     9    13 ar  
    23     9    18 1   
    24    10    19 1   
    25    11    24 1   
    26    12    25 1   
    27    13    14 ar  
    28    13    16 1   
    29    14    29 1   
    30    15    30 1   
    31    18    31 1   
    32    19    33 2   
    33    19    34 2   
    34    26    32 1   
    35    27    32 1   
    36    28    32 1   
@<TRIPOS>SUBSTRUCTURE
     1 FGQ         1 TEMP              0 ****  ****    0 ROOT
