@<TRIPOS>MOLECULE
FGT
   38    41     1     0     0
SMALL
No Charge or Current Charge


@<TRIPOS>ATOM
      1 C16         -1.3510     1.6320     1.1320 ca         1 FGT      -0.044250
      2 C15         -1.2860     0.5050     0.2810 ca         1 FGT      -0.134800
      3 C10          2.4510     0.2500     0.8150 ca         1 FGT      -0.044250
      4 C11          3.6000     1.0450     0.6490 ca         1 FGT      -0.182250
      5 C13          2.4270     2.4060    -0.9780 ca         1 FGT      -0.182250
      6 C14          1.2770     1.6140    -0.8150 ca         1 FGT      -0.044250
      7 C1           0.0220    -2.4210     1.2870 c          1 FGT       0.673700
      8 C12          3.5850     2.1230    -0.2460 ca         1 FGT       0.151600
      9 C17         -2.5130     2.4200     1.1990 ca         1 FGT      -0.182250
     10 C18         -3.6310     2.0880     0.4230 ca         1 FGT       0.151600
     11 C19         -3.5900     0.9660    -0.4140 ca         1 FGT      -0.182250
     12 C2           0.0040    -0.3350     0.2430 c5         1 FGT       0.345900
     13 C20         -2.4290     0.1760    -0.4850 ca         1 FGT      -0.044250
     14 C3           0.0030    -1.4410    -0.7970 ca         1 FGT      -0.086300
     15 C4           0.0190    -1.3570    -2.2000 ca         1 FGT      -0.087000
     16 C5           0.0170    -2.5540    -2.9460 ca         1 FGT      -0.086000
     17 C6           0.0070    -3.8060    -2.2880 ca         1 FGT      -0.120000
     18 C7           0.0020    -3.8700    -0.8800 ca         1 FGT      -0.033000
     19 C8           0.0020    -2.6590    -0.1700 ca         1 FGT      -0.192600
     20 C9           1.2690     0.5290     0.0910 ca         1 FGT      -0.134800
     21 O2           0.0500    -1.0630     1.5150 os         1 FGT      -0.426100
     22 O3           4.6950     2.8960    -0.4120 oh         1 FGT      -0.531600
     23 O4          -4.7620     2.8450     0.4820 oh         1 FGT      -0.531600
     24 H10         -0.4930     1.8980     1.7460 ha         1 FGT       0.123750
     25 H5           2.4910    -0.5860     1.5100 ha         1 FGT       0.123750
     26 H6           4.4960     0.8120     1.2190 ha         1 FGT       0.123750
     27 H8           2.4160     3.2390    -1.6760 ha         1 FGT       0.123750
     28 H9           0.3880     1.8480    -1.3980 ha         1 FGT       0.123750
     29 H11         -2.5350     3.2850     1.8580 ha         1 FGT       0.123750
     30 H13         -4.4600     0.7040    -1.0110 ha         1 FGT       0.123750
     31 H14         -2.4370    -0.6950    -1.1360 ha         1 FGT       0.123750
     32 H1           0.0270    -0.3910    -2.7010 ha         1 FGT       0.128000
     33 H2           0.0250    -2.5140    -4.0330 ha         1 FGT       0.118000
     34 H3           0.0070    -4.7250    -2.8710 ha         1 FGT       0.121000
     35 H4           0.0030    -4.8270    -0.3610 ha         1 FGT       0.137000
     36 H7           5.4020     2.5530     0.1750 ho         1 FGT       0.467500
     37 H12         -4.6100     3.5790     1.1150 ho         1 FGT       0.467500
     38 O1           0.0230    -3.2790     2.1580 o          1 FGT      -0.483000
@<TRIPOS>BOND
     1     1     2 ar  
     2     1     9 ar  
     3     1    24 1   
     4     2    12 1   
     5     2    13 ar  
     6     3     4 ar  
     7     3    20 ar  
     8     3    25 1   
     9     4     8 ar  
    10     4    26 1   
    11     5     6 ar  
    12     5     8 ar  
    13     5    27 1   
    14     6    20 ar  
    15     6    28 1   
    16     7    19 1   
    17     7    21 1   
    18     7    38 2   
    19     8    22 1   
    20     9    10 ar  
    21     9    29 1   
    22    10    11 ar  
    23    10    23 1   
    24    11    13 ar  
    25    11    30 1   
    26    12    14 1   
    27    12    20 1   
    28    12    21 1   
    29    13    31 1   
    30    14    15 ar  
    31    14    19 ar  
    32    15    16 ar  
    33    15    32 1   
    34    16    17 ar  
    35    16    33 1   
    36    17    18 ar  
    37    17    34 1   
    38    18    19 ar  
    39    18    35 1   
    40    22    36 1   
    41    23    37 1   
@<TRIPOS>SUBSTRUCTURE
     1 FGT         1 TEMP              0 ****  ****    0 ROOT
