@<TRIPOS>MOLECULE
FGT
   38    41     1     0     0
SMALL
abcg2


@<TRIPOS>ATOM
      1 C16         -1.3810     1.6020     1.1420 ca         1 FGT      -0.044250
      2 C15         -1.2840     0.5400     0.2440 ca         1 FGT      -0.134800
      3 C10          2.4220     0.1990     0.7490 ca         1 FGT      -0.044250
      4 C11          3.5830     0.9350     0.5650 ca         1 FGT      -0.182250
      5 C13          2.4090     2.3970    -0.9370 ca         1 FGT      -0.182250
      6 C14          1.2550     1.6600    -0.7380 ca         1 FGT      -0.044250
      7 C1          -0.0080    -2.3490     1.2940 c          1 FGT       0.673700
      8 C12          3.5850     2.0390    -0.2820 ca         1 FGT       0.151600
      9 C17         -2.5370     2.3540     1.2420 ca         1 FGT      -0.182250
     10 C18         -3.6340     2.0570     0.4340 ca         1 FGT       0.151600
     11 C19         -3.5510     1.0000    -0.4670 ca         1 FGT      -0.182250
     12 C2          -0.0160    -0.2880     0.2290 c5         1 FGT       0.345900
     13 C20         -2.3870     0.2510    -0.5510 ca         1 FGT      -0.044250
     14 C3           0.0020    -1.3920    -0.8010 ca         1 FGT      -0.086300
     15 C4           0.0480    -1.3340    -2.1830 ca         1 FGT      -0.087000
     16 C5           0.0740    -2.5360    -2.8770 ca         1 FGT      -0.086000
     17 C6           0.0630    -3.7650    -2.2130 ca         1 FGT      -0.120000
     18 C7           0.0290    -3.8150    -0.8290 ca         1 FGT      -0.033000
     19 C8           0.0000    -2.6070    -0.1490 ca         1 FGT      -0.192600
     20 C9           1.2410     0.5520     0.1070 ca         1 FGT      -0.134800
     21 O2           0.0180    -1.0190     1.4770 os         1 FGT      -0.426100
     22 O3           4.6820     2.7890    -0.4990 oh         1 FGT      -0.531600
     23 O4          -4.7830     2.7550     0.4870 oh         1 FGT      -0.531600
     24 H10         -0.5420     1.8560     1.7780 ha         1 FGT       0.123750
     25 H5           2.4610    -0.6550     1.4120 ha         1 FGT       0.123750
     26 H6           4.4860     0.6430     1.0880 ha         1 FGT       0.123750
     27 H8           2.3990     3.2560    -1.5960 ha         1 FGT       0.123750
     28 H9           0.3520     1.9670    -1.2500 ha         1 FGT       0.123750
     29 H11         -2.5850     3.1730     1.9500 ha         1 FGT       0.123750
     30 H13         -4.3970     0.7620    -1.0990 ha         1 FGT       0.123750
     31 H14         -2.3580    -0.5680    -1.2570 ha         1 FGT       0.123750
     32 H1           0.0640    -0.3930    -2.7170 ha         1 FGT       0.128000
     33 H2           0.1060    -2.5220    -3.9590 ha         1 FGT       0.118000
     34 H3           0.0870    -4.6810    -2.7880 ha         1 FGT       0.121000
     35 H4           0.0300    -4.7590    -0.3000 ha         1 FGT       0.137000
     36 H7           5.4270     2.4520     0.0110 ho         1 FGT       0.467500
     37 H12         -4.7230     3.4530     1.1500 ho         1 FGT       0.467500
     38 O1          -0.0260    -3.1200     2.2150 o          1 FGT      -0.483000
@<TRIPOS>BOND
     1     1     2 ar  
     2     1     9 ar  
     3     1    24 1   
     4     2    12 1   
     5     2    13 ar  
     6     3     4 ar  
     7     3    20 ar  
     8     3    25 1   
     9     4     8 ar  
    10     4    26 1   
    11     5     6 ar  
    12     5     8 ar  
    13     5    27 1   
    14     6    20 ar  
    15     6    28 1   
    16     7    19 1   
    17     7    21 1   
    18     7    38 2   
    19     8    22 1   
    20     9    10 ar  
    21     9    29 1   
    22    10    11 ar  
    23    10    23 1   
    24    11    13 ar  
    25    11    30 1   
    26    12    14 1   
    27    12    20 1   
    28    12    21 1   
    29    13    31 1   
    30    14    15 ar  
    31    14    19 ar  
    32    15    16 ar  
    33    15    32 1   
    34    16    17 ar  
    35    16    33 1   
    36    17    18 ar  
    37    17    34 1   
    38    18    19 ar  
    39    18    35 1   
    40    22    36 1   
    41    23    37 1   
@<TRIPOS>SUBSTRUCTURE
     1 FGT         1 TEMP              0 ****  ****    0 ROOT
