@<TRIPOS>MOLECULE
FGU
   35    34     1     0     0
SMALL
No Charge or Current Charge


@<TRIPOS>ATOM
      1 N            7.1490    27.5760    32.2650 ns         1 FGU      -0.515900
      2 C            8.0460    26.0880    34.0610 c3         1 FGU      -0.180100
      3 O            6.0520    23.3920    29.2520 o          1 FGU      -0.511100
      4 C1           7.0370    27.1240    33.5610 c          1 FGU       0.604100
      5 C2           7.9250    26.9490    31.1870 c3         1 FGU       0.119000
      6 C3           7.2040    25.7310    30.5770 c3         1 FGU       0.008600
      7 C4           7.1680    23.5580    28.7730 c          1 FGU       0.614700
      8 C5           7.7410    22.6470    27.6270 c3         1 FGU       0.082500
      9 C6           9.1100    21.9890    27.9800 c3         1 FGU      -0.071400
     10 C7           9.1560    21.0200    29.2020 c3         1 FGU      -0.055700
     11 C8           9.0600    21.7160    30.5810 c3         1 FGU      -0.093100
     12 C9           8.1470    19.8540    29.0850 c3         1 FGU      -0.093100
     13 N1           7.8420    23.3080    26.2780 n8         1 FGU      -1.004200
     14 O1           6.1820    27.5920    34.2940 o          1 FGU      -0.601100
     15 S            8.2400    24.9580    29.2540 ss         1 FGU      -0.320600
     16 H1           6.4990    28.3100    32.0100 hn         1 FGU       0.316500
     17 H2           7.9030    25.8430    35.1190 hc         1 FGU       0.060367
     18 H3           7.9970    25.1910    33.4360 hc         1 FGU       0.060367
     19 H4           9.0610    26.4560    33.8720 hc         1 FGU       0.060367
     20 H5           8.9110    26.6470    31.5630 h1         1 FGU       0.060200
     21 H6           8.0900    27.6970    30.4000 h1         1 FGU       0.060200
     22 H7           6.2450    26.0480    30.1470 h1         1 FGU       0.076700
     23 H8           7.0040    24.9840    31.3550 h1         1 FGU       0.076700
     24 H9           7.0110    21.8340    27.5110 h1         1 FGU       0.053700
     25 H10          9.4470    21.4190    27.1040 hc         1 FGU       0.052200
     26 H11          9.8640    22.7740    28.1220 hc         1 FGU       0.052200
     27 H12         10.1540    20.5630    29.1730 hc         1 FGU       0.044700
     28 H13          9.3370    21.0160    31.3780 hc         1 FGU       0.037200
     29 H14          9.7450    22.5710    30.6360 hc         1 FGU       0.037200
     30 H15          8.0440    22.0650    30.7910 hc         1 FGU       0.037200
     31 H16          8.3250    19.1110    29.8720 hc         1 FGU       0.037200
     32 H17          7.1150    20.2100    29.1850 hc         1 FGU       0.037200
     33 H18          8.2470    19.3490    28.1160 hc         1 FGU       0.037200
     34 H19          8.1440    22.6170    25.5790 hn         1 FGU       0.411000
     35 H20          6.9040    23.5780    25.9520 hn         1 FGU       0.411000
@<TRIPOS>BOND
     1     1     4 1   
     2     1     5 1   
     3     1    16 1   
     4     2     4 1   
     5     2    17 1   
     6     2    18 1   
     7     2    19 1   
     8     3     7 2   
     9     4    14 2   
    10     5     6 1   
    11     5    20 1   
    12     5    21 1   
    13     6    15 1   
    14     6    22 1   
    15     6    23 1   
    16     7     8 1   
    17     7    15 1   
    18     8     9 1   
    19     8    13 1   
    20     8    24 1   
    21     9    10 1   
    22     9    25 1   
    23     9    26 1   
    24    10    11 1   
    25    10    12 1   
    26    10    27 1   
    27    11    28 1   
    28    11    29 1   
    29    11    30 1   
    30    12    31 1   
    31    12    32 1   
    32    12    33 1   
    33    13    34 1   
    34    13    35 1   
@<TRIPOS>SUBSTRUCTURE
     1 FGU         1 TEMP              0 ****  ****    0 ROOT
