@<TRIPOS>MOLECULE
FGU
   35    34     1     0     0
SMALL
abcg2


@<TRIPOS>ATOM
      1 N            7.0560    27.2660    32.2390 ns         1 FGU      -0.515900
      2 C            8.5180    25.8300    33.5570 c3         1 FGU      -0.180100
      3 O            6.0980    23.1510    29.2520 o          1 FGU      -0.511100
      4 C1           7.3660    26.8020    33.4680 c          1 FGU       0.604100
      5 C2           7.6450    26.8460    30.9900 c3         1 FGU       0.119000
      6 C3           6.9320    25.6290    30.4060 c3         1 FGU       0.008600
      7 C4           7.0720    23.5230    28.6510 c          1 FGU       0.614700
      8 C5           7.8280    22.6960    27.6310 c3         1 FGU       0.082500
      9 C6           9.0990    22.0770    28.2350 c3         1 FGU      -0.071400
     10 C7           8.9860    21.1490    29.4510 c3         1 FGU      -0.055700
     11 C8           8.8250    21.8770    30.7860 c3         1 FGU      -0.093100
     12 C9           7.9230    20.0680    29.2810 c3         1 FGU      -0.093100
     13 N1           8.2280    23.5770    26.5530 n8         1 FGU      -1.004200
     14 O1           6.7570    27.1750    34.4620 o          1 FGU      -0.601100
     15 S            7.7980    25.1250    28.8920 ss         1 FGU      -0.320600
     16 H1           6.2710    27.8990    32.1870 hn         1 FGU       0.316500
     17 H2           8.5990    25.4570    34.5740 hc         1 FGU       0.060367
     18 H3           8.3970    24.9780    32.8870 hc         1 FGU       0.060367
     19 H4           9.4580    26.3170    33.2940 hc         1 FGU       0.060367
     20 H5           8.7040    26.6310    31.1340 h1         1 FGU       0.060200
     21 H6           7.5920    27.6830    30.2940 h1         1 FGU       0.060200
     22 H7           5.8920    25.8670    30.1820 h1         1 FGU       0.076700
     23 H8           6.9470    24.8020    31.1180 h1         1 FGU       0.076700
     24 H9           7.1520    21.8890    27.3190 h1         1 FGU       0.053700
     25 H10          9.5540    21.5050    27.4190 hc         1 FGU       0.052200
     26 H11          9.7970    22.8870    28.4620 hc         1 FGU       0.052200
     27 H12          9.9560    20.6420    29.4940 hc         1 FGU       0.044700
     28 H13          9.0180    21.1900    31.6120 hc         1 FGU       0.037200
     29 H14          9.5270    22.7080    30.8770 hc         1 FGU       0.037200
     30 H15          7.8190    22.2700    30.9340 hc         1 FGU       0.037200
     31 H16          7.9810    19.3450    30.0960 hc         1 FGU       0.037200
     32 H17          6.9160    20.4870    29.2910 hc         1 FGU       0.037200
     33 H18          8.0480    19.5200    28.3450 hc         1 FGU       0.037200
     34 H19          8.9120    23.1190    25.9640 hn         1 FGU       0.411000
     35 H20          7.4380    23.7990    25.9600 hn         1 FGU       0.411000
@<TRIPOS>BOND
     1     1     4 1   
     2     1     5 1   
     3     1    16 1   
     4     2     4 1   
     5     2    17 1   
     6     2    18 1   
     7     2    19 1   
     8     3     7 2   
     9     4    14 2   
    10     5     6 1   
    11     5    20 1   
    12     5    21 1   
    13     6    15 1   
    14     6    22 1   
    15     6    23 1   
    16     7     8 1   
    17     7    15 1   
    18     8     9 1   
    19     8    13 1   
    20     8    24 1   
    21     9    10 1   
    22     9    25 1   
    23     9    26 1   
    24    10    11 1   
    25    10    12 1   
    26    10    27 1   
    27    11    28 1   
    28    11    29 1   
    29    11    30 1   
    30    12    31 1   
    31    12    32 1   
    32    12    33 1   
    33    13    34 1   
    34    13    35 1   
@<TRIPOS>SUBSTRUCTURE
     1 FGU         1 TEMP              0 ****  ****    0 ROOT
