@<TRIPOS>MOLECULE
FGV
   33    33     1     0     0
SMALL
No Charge or Current Charge


@<TRIPOS>ATOM
      1 C1          11.9840    10.0370    -1.0390 c6         1 FGV       0.206633
      2 C2          12.4920     9.7190     0.4160 c6         1 FGV       0.156633
      3 C3          12.0320    10.8060     1.4330 c6         1 FGV       0.206633
      4 C4          10.4770    11.0330     1.3950 c6         1 FGV       0.156633
      5 C5          10.0030    11.3710    -0.0660 c6         1 FGV       0.206633
      6 O1          12.4240     9.0570    -2.0260 os         1 FGV      -0.624400
      7 C6          10.4230    10.2310    -1.0670 c6         1 FGV       0.156633
      8 O11         14.9270     8.8060    -1.5590 o          1 FGV      -0.952611
      9 O12         14.0390     8.0700    -3.6860 o          1 FGV      -0.952611
     10 O13         14.1950    10.4390    -3.2100 o          1 FGV      -0.952611
     11 O2          12.1030     8.4080     0.8920 oh         1 FGV      -0.733333
     12 O3          12.4910    10.4340     2.7590 os         1 FGV      -0.624400
     13 O4          10.0480    12.0320     2.3550 oh         1 FGV      -0.733333
     14 O5           8.5740    11.6430    -0.1090 os         1 FGV      -0.624400
     15 O51          8.4030    12.5150    -2.4540 o          1 FGV      -0.952611
     16 O52          6.5230    12.8390    -0.9550 o          1 FGV      -0.952611
     17 O53          8.5560    14.1310    -0.6380 o          1 FGV      -0.952611
     18 O6           9.9350    10.4640    -2.4140 oh         1 FGV      -0.733333
     19 P1          13.9240     9.1010    -2.6170 p5         1 FGV       1.321900
     20 P5           8.0070    12.8130    -1.0540 p5         1 FGV       1.321900
     21 P3          13.0500    11.5680     3.7490 p5         1 FGV       1.321900
     22 O31         11.9810    12.5770     3.9530 o          1 FGV      -0.952611
     23 O32         13.4030    10.9410     5.0510 o          1 FGV      -0.952611
     24 O33         14.2570    12.2030     3.1580 o          1 FGV      -0.952611
     25 H1          12.4230    11.0070    -1.3170 h1         1 FGV       0.035367
     26 H2          13.5890     9.7730     0.4020 h1         1 FGV       0.023367
     27 H3          12.5150    11.7510     1.1400 h1         1 FGV       0.035367
     28 H4          10.0090    10.0750     1.6670 h1         1 FGV       0.023367
     29 H5          10.5360    12.2850    -0.3720 h1         1 FGV       0.035367
     30 H6           9.9720     9.2990    -0.6950 h1         1 FGV       0.023367
     31 H12         12.2470     8.4600     1.8660 ho         1 FGV       0.471667
     32 H14         10.8320    12.1970     2.9750 ho         1 FGV       0.471667
     33 H16          9.3210    11.2700    -2.3700 ho         1 FGV       0.471667
@<TRIPOS>BOND
     1     1     2 1   
     2     1     6 1   
     3     1     7 1   
     4     1    25 1   
     5     2     3 1   
     6     2    11 1   
     7     2    26 1   
     8     3     4 1   
     9     3    12 1   
    10     3    27 1   
    11     4     5 1   
    12     4    13 1   
    13     4    28 1   
    14     5     7 1   
    15     5    14 1   
    16     5    29 1   
    17     6    19 1   
    18     7    18 1   
    19     7    30 1   
    20     8    19 1   
    21     9    19 1   
    22    10    19 1   
    23    11    31 1   
    24    12    21 1   
    25    13    32 1   
    26    14    20 1   
    27    15    20 1   
    28    16    20 1   
    29    17    20 1   
    30    18    33 1   
    31    21    22 1   
    32    21    23 1   
    33    21    24 1   
@<TRIPOS>SUBSTRUCTURE
     1 FGV         1 TEMP              0 ****  ****    0 ROOT
