@<TRIPOS>MOLECULE
FGV
   33    33     1     0     0
SMALL
abcg2


@<TRIPOS>ATOM
      1 C1          12.0780    10.1230    -0.9600 c6         1 FGV       0.206633
      2 C2          12.4540     9.7590     0.4710 c6         1 FGV       0.156633
      3 C3          12.0390    10.8480     1.4500 c6         1 FGV       0.206633
      4 C4          10.5530    11.1840     1.3460 c6         1 FGV       0.156633
      5 C5          10.1190    11.4760    -0.0890 c6         1 FGV       0.206633
      6 O1          12.4540     9.0920    -1.8560 os         1 FGV      -0.624400
      7 C6          10.5850    10.4170    -1.1010 c6         1 FGV       0.156633
      8 O11         14.9910     9.4100    -1.5890 o          1 FGV      -0.952611
      9 O12         13.9900     7.7950    -3.3090 o          1 FGV      -0.952611
     10 O13         13.8030    10.3260    -3.6530 o          1 FGV      -0.952611
     11 O2          11.8450     8.5110     0.8360 oh         1 FGV      -0.733333
     12 O3          12.3280    10.3740     2.7670 os         1 FGV      -0.624400
     13 O4          10.2170    12.2950     2.1680 oh         1 FGV      -0.733333
     14 O5           8.6950    11.5590    -0.0790 os         1 FGV      -0.624400
     15 O51          7.9820    11.9920    -2.4820 o          1 FGV      -0.952611
     16 O52          6.4370    12.5030    -0.5100 o          1 FGV      -0.952611
     17 O53          8.5050    13.9640    -0.9480 o          1 FGV      -0.952611
     18 O6          10.3400    10.8480    -2.4320 oh         1 FGV      -0.733333
     19 P1          13.9300     9.1720    -2.6620 p5         1 FGV       1.321900
     20 P5           7.8430    12.6010    -1.0730 p5         1 FGV       1.321900
     21 P3          13.0980    11.3940     3.8590 p5         1 FGV       1.321900
     22 O31         12.2200    12.6570     3.8620 o          1 FGV      -0.952611
     23 O32         13.0420    10.5940     5.1460 o          1 FGV      -0.952611
     24 O33         14.4930    11.6370     3.3070 o          1 FGV      -0.952611
     25 H1          12.6150    11.0480    -1.2060 h1         1 FGV       0.035367
     26 H2          13.5410     9.6530     0.5080 h1         1 FGV       0.023367
     27 H3          12.6270    11.7460     1.2340 h1         1 FGV       0.035367
     28 H4           9.9940    10.3010     1.6830 h1         1 FGV       0.023367
     29 H5          10.5370    12.4450    -0.3850 h1         1 FGV       0.035367
     30 H6          10.0290     9.4920    -0.8980 h1         1 FGV       0.023367
     31 H12         11.9420     8.4550     1.7980 ho         1 FGV       0.471667
     32 H14         10.9450    12.4310     2.8410 ho         1 FGV       0.471667
     33 H16          9.4230    11.2520    -2.4790 ho         1 FGV       0.471667
@<TRIPOS>BOND
     1     1     2 1   
     2     1     6 1   
     3     1     7 1   
     4     1    25 1   
     5     2     3 1   
     6     2    11 1   
     7     2    26 1   
     8     3     4 1   
     9     3    12 1   
    10     3    27 1   
    11     4     5 1   
    12     4    13 1   
    13     4    28 1   
    14     5     7 1   
    15     5    14 1   
    16     5    29 1   
    17     6    19 1   
    18     7    18 1   
    19     7    30 1   
    20     8    19 1   
    21     9    19 1   
    22    10    19 1   
    23    11    31 1   
    24    12    21 1   
    25    13    32 1   
    26    14    20 1   
    27    15    20 1   
    28    16    20 1   
    29    17    20 1   
    30    18    33 1   
    31    21    22 1   
    32    21    23 1   
    33    21    24 1   
@<TRIPOS>SUBSTRUCTURE
     1 FGV         1 TEMP              0 ****  ****    0 ROOT
