@<TRIPOS>MOLECULE
FGW
  167   174     1     0     0
SMALL
No Charge or Current Charge


@<TRIPOS>ATOM
      1 C03         19.6400    26.4370    29.9110 c3         1 FGW       0.102600
      2 C04         20.4930    26.6690    28.6500 c3         1 FGW      -0.125400
      3 C05         21.0590    25.3680    28.0460 c3         1 FGW       0.104000
      4 N02         21.9750    24.6780    28.9620 ns         1 FGW      -0.529900
      5 N01         19.1240    27.7300    30.5430 nx         1 FGW      -0.673000
      6 C01         18.5370    27.4780    31.9380 c3         1 FGW       0.080400
      7 C02         18.1280    28.4810    29.6440 c3         1 FGW       0.080400
      8 C11         24.0630    20.6330    32.3310 c          1 FGW       0.645700
      9 N03         24.1980    21.1630    31.0700 ns         1 FGW      -0.509900
     10 O11         22.9790    20.5360    32.8870 o          1 FGW      -0.617100
     11 C14         27.5690    19.8420    33.2540 cc         1 FGW      -0.007400
     12 N11         25.5760    19.6530    34.2100 na         1 FGW       0.071000
     13 O21         29.8550    19.1370    34.9680 o          1 FGW      -0.610100
     14 C13         26.5970    20.2990    32.3540 cc         1 FGW      -0.176000
     15 N12         28.9280    19.8100    32.9780 ns         1 FGW      -0.376100
     16 O31         35.6600    19.6030    30.5390 o          1 FGW      -0.615100
     17 C15         26.9480    19.4440    34.4060 cd         1 FGW      -0.163000
     18 N21         32.5760    19.2520    33.6160 na         1 FGW       0.077000
     19 CM1         24.5340    19.3240    35.1930 c3         1 FGW       0.060900
     20 O91         29.0550    22.4440    20.0270 o          1 FGW      -0.584100
     21 C12         25.3550    20.2060    32.9370 cd         1 FGW      -0.241600
     22 N31         36.0880    20.2300    27.6020 na         1 FGW       0.061000
     23 O51         29.8500    25.8200    21.0160 o          1 FGW      -0.607100
     24 C21         29.9840    19.4580    33.7950 c          1 FGW       0.650700
     25 O61         35.7470    24.3940    25.1330 o          1 FGW      -0.609100
     26 C24         32.8680    19.7160    31.4660 cc         1 FGW      -0.022400
     27 O71         35.4710    22.8060    32.2630 o          1 FGW      -0.616100
     28 C25         33.5410    19.3840    32.6090 cd         1 FGW      -0.165000
     29 N41         33.0910    21.9150    21.4640 na         1 FGW      -0.119500
     30 O81         29.3960    22.6550    36.2830 o          1 FGW      -0.612100
     31 CM2         32.8770    18.9070    35.0130 c3         1 FGW       0.046900
     32 N42         31.7130    21.5620    23.1940 nc         1 FGW      -0.714000
     33 C22         31.2980    19.5030    33.0880 cd         1 FGW      -0.223600
     34 C23         31.5000    19.7940    31.7570 cc         1 FGW      -0.193000
     35 C31         34.7280    19.8810    29.7960 c          1 FGW       0.650700
     36 N91         28.9520    25.1120    22.9880 ns         1 FGW      -0.510900
     37 C34         34.4480    20.6780    26.1770 cc         1 FGW      -0.025400
     38 N51         32.6120    25.3400    22.2280 na         1 FGW       0.069000
     39 C35         35.8050    20.5400    26.2660 cd         1 FGW      -0.170000
     40 CM3         37.4410    20.0130    28.1320 c3         1 FGW       0.044900
     41 N61         36.1980    23.6480    28.0430 na         1 FGW       0.075000
     42 C32         34.8940    20.1750    28.3420 cd         1 FGW      -0.225600
     43 C41         34.1510    21.2500    23.7500 c          1 FGW       0.543600
     44 N71         33.2840    22.5550    34.3450 na         1 FGW       0.060000
     45 C42         33.0000    21.5690    22.8180 cd         1 FGW       0.359000
     46 C43         31.0170    21.9150    22.0930 cc         1 FGW       0.361900
     47 C44         31.8050    22.1330    21.0030 cd         1 FGW      -0.218000
     48 C91         28.7700    22.4250    21.2160 c          1 FGW       0.598100
     49 C08         23.1020    21.7130    30.2720 c3         1 FGW       0.115000
     50 C51         30.0060    25.4200    22.1590 c          1 FGW       0.640700
     51 C54         32.9330    24.7400    24.3410 cc         1 FGW      -0.017400
     52 C53         31.5540    24.8370    24.1080 cc         1 FGW      -0.184000
     53 C55         33.5950    25.0470    23.1840 cd         1 FGW      -0.172000
     54 CM5         32.8940    25.7070    20.8330 c3         1 FGW       0.059900
     55 C52         31.3350    25.2100    22.8020 cd         1 FGW      -0.228600
     56 C61         34.8180    24.2470    25.9160 c          1 FGW       0.647700
     57 C63         34.0010    23.7750    28.2980 cc         1 FGW      -0.187000
     58 C64         34.5710    23.4560    29.5390 cc         1 FGW      -0.027400
     59 C65         35.9270    23.3730    29.3890 cd         1 FGW      -0.163000
     60 CM6         37.5450    23.6580    27.4540 c3         1 FGW       0.060900
     61 C62         34.9980    23.9030    27.3570 cd         1 FGW      -0.222600
     62 C71         34.2910    22.9640    31.9790 c          1 FGW       0.646700
     63 C74         31.1300    22.8920    33.9340 cc         1 FGW      -0.022400
     64 C75         32.0120    22.5770    34.9290 cd         1 FGW      -0.171000
     65 CM7         34.5230    22.2420    35.0720 c3         1 FGW       0.059900
     66 C72         33.1870    22.8660    32.9780 cd         1 FGW      -0.228600
     67 C81         28.9400    22.8970    35.1700 c          1 FGW       0.543600
     68 C92         27.3620    22.7840    21.7130 c3         1 FGW      -0.143400
     69 C93         27.0350    24.2940    21.5270 c3         1 FGW      -0.095400
     70 C94         27.5300    25.2350    22.6540 c3         1 FGW       0.111000
     71 C33         33.8890    20.4560    27.4440 cc         1 FGW      -0.172000
     72 C73         31.8450    23.0660    32.7390 cc         1 FGW      -0.170000
     73 C07         22.7400    23.1430    30.7120 c3         1 FGW      -0.187400
     74 C06         21.6080    23.6970    29.8550 c          1 FGW       0.591100
     75 O01         20.4510    23.3240    29.9760 o          1 FGW      -0.592100
     76 C83         25.2400    23.2730    34.8620 cc         1 FGW      -0.219000
     77 N81         26.3470    23.0470    35.6580 na         1 FGW      -0.128500
     78 C88         26.2620    22.8530    37.1270 c3         1 FGW       0.098300
     79 C82         27.4770    23.1050    34.8280 cc         1 FGW       0.350000
     80 N82         27.0820    23.4100    33.5830 nd         1 FGW      -0.682000
     81 C84         25.7130    23.5000    33.6030 cd         1 FGW       0.228900
     82 C9          26.6820    21.4470    37.6110 c3         1 FGW      -0.109100
     83 C8          26.9000    24.0050    37.9350 c3         1 FGW      -0.109100
     84 H032        18.7880    25.7980    29.6650 hx         1 FGW       0.106700
     85 H031        20.2490    25.9110    30.6520 hx         1 FGW       0.106700
     86 H041        21.3240    27.3430    28.8910 hc         1 FGW       0.064700
     87 H042        19.8870    27.1680    27.8860 hc         1 FGW       0.064700
     88 H052        20.2330    24.6960    27.7720 h1         1 FGW       0.085200
     89 H051        21.6040    25.6080    27.1220 h1         1 FGW       0.085200
     90 HN02        22.9580    24.9270    28.9380 hn         1 FGW       0.320500
     91 H005        19.2870    27.0010    32.5750 hx         1 FGW       0.100367
     92 H006        18.2320    28.4260    32.3890 hx         1 FGW       0.100367
     93 H004        17.6670    26.8230    31.8550 hx         1 FGW       0.100367
     94 H002        17.8100    29.4040    30.1350 hx         1 FGW       0.100367
     95 H003        18.5980    28.7260    28.6890 hx         1 FGW       0.100367
     96 H001        17.2530    27.8510    29.4640 hx         1 FGW       0.100367
     97 HN03        25.1370    21.1970    30.6980 hn         1 FGW       0.319500
     98 H13         26.8290    20.6820    31.3650 ha         1 FGW       0.119000
     99 HN1         29.2200    20.0820    32.0500 hn         1 FGW       0.320500
    100 H15         27.3500    19.0300    35.3210 h4         1 FGW       0.182000
    101 H111        24.9770    18.7960    36.0450 h1         1 FGW       0.062033
    102 H113        24.0590    20.2480    35.5450 h1         1 FGW       0.062033
    103 H112        23.7790    18.6800    34.7270 h1         1 FGW       0.062033
    104 HN2         32.7720    20.1800    29.4640 hn         1 FGW       0.320500
    105 HN3         32.7040    21.0600    25.1260 hn         1 FGW       0.346500
    106 H25         34.5980    19.2330    32.7920 h4         1 FGW       0.184000
    107 H222        32.4860    19.6880    35.6750 h1         1 FGW       0.068033
    108 H221        32.4080    17.9490    35.2620 h1         1 FGW       0.068033
    109 H223        33.9620    18.8260    35.1520 h1         1 FGW       0.068033
    110 HN4         29.2740    21.9850    23.1240 hn         1 FGW       0.323500
    111 H23         30.7450    20.0390    31.0160 ha         1 FGW       0.118000
    112 HN9         29.2000    24.8010    23.9170 hn         1 FGW       0.307500
    113 H35         36.5780    20.6360    25.5140 h4         1 FGW       0.182000
    114 HN5         32.8570    24.2230    26.3300 hn         1 FGW       0.317500
    115 H333        37.5230    18.9900    28.5170 h1         1 FGW       0.066700
    116 H332        38.1820    20.1590    27.3370 h1         1 FGW       0.066700
    117 H331        37.6360    20.7250    28.9420 h1         1 FGW       0.066700
    118 HN6         32.8410    23.3650    30.6510 hn         1 FGW       0.320500
    119 HN7         29.2180    23.2410    33.2140 hn         1 FGW       0.349500
    120 H44         31.5660    22.4390    19.9930 h4         1 FGW       0.191000
    121 H441        34.9640    22.8260    21.1280 h1         1 FGW       0.070367
    122 H443        34.8580    21.1080    20.6370 h1         1 FGW       0.070367
    123 H442        34.0720    22.3720    19.6480 h1         1 FGW       0.070367
    124 H081        22.2230    21.0600    30.3660 h1         1 FGW       0.067700
    125 H082        23.4050    21.7180    29.2160 h1         1 FGW       0.067700
    126 H53         30.8040    24.6420    24.8680 ha         1 FGW       0.120000
    127 H55         34.6540    25.0850    22.9620 h4         1 FGW       0.179000
    128 H552        33.9750    25.6790    20.6510 h1         1 FGW       0.062033
    129 H553        32.3980    24.9970    20.1610 h1         1 FGW       0.062033
    130 H551        32.5200    26.7180    20.6380 h1         1 FGW       0.062033
    131 H63         32.9340    23.9010    28.1450 ha         1 FGW       0.119000
    132 H65         36.7080    23.1490    30.1050 h4         1 FGW       0.182000
    133 H662        38.2860    23.3710    28.2100 h1         1 FGW       0.063033
    134 H663        37.5860    22.9450    26.6220 h1         1 FGW       0.063033
    135 H661        37.7760    24.6640    27.0850 h1         1 FGW       0.063033
    136 H75         31.8520    22.3670    35.9790 h4         1 FGW       0.178000
    137 H773        34.2920    21.9970    36.1150 h1         1 FGW       0.062700
    138 H772        35.0160    21.3830    34.6010 h1         1 FGW       0.062700
    139 H771        35.1930    23.1090    35.0440 h1         1 FGW       0.062700
    140 H922        26.6450    22.2130    21.1120 hc         1 FGW       0.054200
    141 H921        27.2390    22.5140    22.7690 hc         1 FGW       0.054200
    142 H932        27.4260    24.6390    20.5620 hc         1 FGW       0.067700
    143 H931        25.9460    24.4060    21.4630 hc         1 FGW       0.067700
    144 H942        27.3260    26.2760    22.3690 h1         1 FGW       0.054700
    145 H943        26.9530    25.0260    23.5650 h1         1 FGW       0.054700
    146 H33         32.8240    20.5090    27.6450 ha         1 FGW       0.126000
    147 H73         31.3760    23.3220    31.7940 ha         1 FGW       0.128000
    148 H072        23.6320    23.7740    30.6190 hc         1 FGW       0.072700
    149 H071        22.4090    23.1150    31.7560 hc         1 FGW       0.072700
    150 H84         24.2250    23.2720    35.2380 h4         1 FGW       0.159000
    151 H10         25.1900    22.9140    37.3600 h1         1 FGW       0.049700
    152 H83         25.1440    23.7260    32.7100 h4         1 FGW       0.029100
    153 H993        26.4750    21.3370    38.6820 hc         1 FGW       0.056867
    154 H991        26.1140    20.6770    37.0840 hc         1 FGW       0.056867
    155 H992        27.7450    21.2490    37.4550 hc         1 FGW       0.056867
    156 H883        26.6630    23.8990    39.0000 hc         1 FGW       0.056867
    157 H882        27.9880    24.0280    37.8350 hc         1 FGW       0.056867
    158 H881        26.5060    24.9710    37.5980 hc         1 FGW       0.056867
    159 HN01        19.9530    28.3590    30.6740 hn         1 FGW       0.497000
    160 N22         33.4100    19.9390    30.2090 ns         1 FGW      -0.370100
    161 N32         33.7130    20.9910    25.0410 ns         1 FGW      -0.350100
    162 CM4         34.3210    22.0640    20.6710 c3         1 FGW       0.049900
    163 O41         35.3350    21.2150    23.4180 o          1 FGW      -0.615100
    164 N43         29.6620    22.0640    22.1960 ns         1 FGW      -0.459400
    165 N52         33.4900    24.3950    25.5630 ns         1 FGW      -0.375100
    166 N62         33.8440    23.2680    30.7060 ns         1 FGW      -0.367100
    167 N72         29.7520    23.0230    34.0500 ns         1 FGW      -0.352100
@<TRIPOS>BOND
     1     1     2 1   
     2     1     5 1   
     3     1    84 1   
     4     1    85 1   
     5     2     3 1   
     6     2    86 1   
     7     2    87 1   
     8     3     4 1   
     9     3    88 1   
    10     3    89 1   
    11     4    74 1   
    12     4    90 1   
    13     5     6 1   
    14     5     7 1   
    15     5   159 1   
    16     6    91 1   
    17     6    92 1   
    18     6    93 1   
    19     7    94 1   
    20     7    95 1   
    21     7    96 1   
    22     8     9 1   
    23     8    10 2   
    24     8    21 1   
    25     9    49 1   
    26     9    97 1   
    27    11    14 1   
    28    11    15 1   
    29    11    17 2   
    30    12    17 1   
    31    12    19 1   
    32    12    21 1   
    33    13    24 2   
    34    14    21 2   
    35    14    98 1   
    36    15    24 1   
    37    15    99 1   
    38    16    35 2   
    39    17   100 1   
    40    18    28 1   
    41    18    31 1   
    42    18    33 1   
    43    19   101 1   
    44    19   102 1   
    45    19   103 1   
    46    20    48 2   
    47    22    39 1   
    48    22    40 1   
    49    22    42 1   
    50    23    50 2   
    51    24    33 1   
    52    25    56 2   
    53    26    28 2   
    54    26    34 1   
    55    26   160 1   
    56    27    62 2   
    57    28   106 1   
    58    29    45 1   
    59    29    47 1   
    60    29   162 1   
    61    30    67 2   
    62    31   107 1   
    63    31   108 1   
    64    31   109 1   
    65    32    45 2   
    66    32    46 1   
    67    33    34 2   
    68    34   111 1   
    69    35    42 1   
    70    35   160 1   
    71    36    50 1   
    72    36    70 1   
    73    36   112 1   
    74    37    39 2   
    75    37    71 1   
    76    37   161 1   
    77    38    53 1   
    78    38    54 1   
    79    38    55 1   
    80    39   113 1   
    81    40   115 1   
    82    40   116 1   
    83    40   117 1   
    84    41    59 1   
    85    41    60 1   
    86    41    61 1   
    87    42    71 2   
    88    43    45 1   
    89    43   161 1   
    90    43   163 2   
    91    44    64 1   
    92    44    65 1   
    93    44    66 1   
    94    46    47 2   
    95    46   164 1   
    96    47   120 1   
    97    48    68 1   
    98    48   164 1   
    99    49    73 1   
   100    49   124 1   
   101    49   125 1   
   102    50    55 1   
   103    51    52 1   
   104    51    53 2   
   105    51   165 1   
   106    52    55 2   
   107    52   126 1   
   108    53   127 1   
   109    54   128 1   
   110    54   129 1   
   111    54   130 1   
   112    56    61 1   
   113    56   165 1   
   114    57    58 1   
   115    57    61 2   
   116    57   131 1   
   117    58    59 2   
   118    58   166 1   
   119    59   132 1   
   120    60   133 1   
   121    60   134 1   
   122    60   135 1   
   123    62    66 1   
   124    62   166 1   
   125    63    64 2   
   126    63    72 1   
   127    63   167 1   
   128    64   136 1   
   129    65   137 1   
   130    65   138 1   
   131    65   139 1   
   132    66    72 2   
   133    67    79 1   
   134    67   167 1   
   135    68    69 1   
   136    68   140 1   
   137    68   141 1   
   138    69    70 1   
   139    69   142 1   
   140    69   143 1   
   141    70   144 1   
   142    70   145 1   
   143    71   146 1   
   144    72   147 1   
   145    73    74 1   
   146    73   148 1   
   147    73   149 1   
   148    74    75 2   
   149    76    77 1   
   150    76    81 2   
   151    76   150 1   
   152    77    78 1   
   153    77    79 1   
   154    78    82 1   
   155    78    83 1   
   156    78   151 1   
   157    79    80 2   
   158    80    81 1   
   159    81   152 1   
   160    82   153 1   
   161    82   154 1   
   162    82   155 1   
   163    83   156 1   
   164    83   157 1   
   165    83   158 1   
   166   104   160 1   
   167   105   161 1   
   168   110   164 1   
   169   114   165 1   
   170   118   166 1   
   171   119   167 1   
   172   121   162 1   
   173   122   162 1   
   174   123   162 1   
@<TRIPOS>SUBSTRUCTURE
     1 FGW         1 TEMP              0 ****  ****    0 ROOT
