@<TRIPOS>MOLECULE
FGW
  167   174     1     0     0
SMALL
abcg2


@<TRIPOS>ATOM
      1 C03         18.4630    24.4040    29.6020 c3         1 FGW       0.102600
      2 C04         18.2280    23.0920    28.8770 c3         1 FGW      -0.125400
      3 C05         18.4480    21.8960    29.8090 c3         1 FGW       0.104000
      4 N02         19.8180    21.7800    30.2790 ns         1 FGW      -0.529900
      5 N01         18.4970    25.5960    28.6790 nx         1 FGW      -0.673000
      6 C01         18.9090    26.8230    29.4290 c3         1 FGW       0.080400
      7 C02         17.2070    25.8190    27.9580 c3         1 FGW       0.080400
      8 C11         23.7430    20.2900    33.8890 c          1 FGW       0.645700
      9 N03         23.2770    20.1390    32.6230 ns         1 FGW      -0.509900
     10 O11         22.9920    20.5660    34.8320 o          1 FGW      -0.617100
     11 C14         27.4180    19.9030    33.7390 cc         1 FGW      -0.007400
     12 N11         25.8130    20.0580    35.2790 na         1 FGW       0.071000
     13 O21         30.0070    19.5510    34.8460 o          1 FGW      -0.610100
     14 C13         26.1780    20.0090    33.0780 cc         1 FGW      -0.176000
     15 N12         28.6360    19.8280    33.0640 ns         1 FGW      -0.376100
     16 O31         34.6500    18.9440    29.4870 o          1 FGW      -0.615100
     17 C15         27.1620    19.9310    35.1020 cd         1 FGW      -0.163000
     18 N21         32.2860    19.3810    32.9780 na         1 FGW       0.077000
     19 CM1         25.1880    20.0500    36.5940 c3         1 FGW       0.060900
     20 O91         30.3660    25.7990    19.6620 o          1 FGW      -0.584100
     21 C12         25.1900    20.1050    34.0510 cd         1 FGW      -0.241600
     22 N31         34.8280    19.3710    26.5750 na         1 FGW       0.061000
     23 O51         33.1360    27.7990    20.9000 o          1 FGW      -0.607100
     24 C21         29.8660    19.6570    33.6230 c          1 FGW       0.650700
     25 O61         36.1910    23.3230    25.4540 o          1 FGW      -0.609100
     26 C24         32.2180    19.6510    30.7660 cc         1 FGW      -0.022400
     27 O71         35.1130    22.1680    32.3420 o          1 FGW      -0.616100
     28 C25         33.0500    19.3990    31.8470 cd         1 FGW      -0.165000
     29 N41         32.8750    22.6540    20.8740 na         1 FGW      -0.119500
     30 O81         29.6260    23.2110    36.7100 o          1 FGW      -0.612100
     31 CM2         32.8650    19.0930    34.2860 c3         1 FGW       0.046900
     32 N42         31.7130    23.2620    22.6630 nc         1 FGW      -0.714000
     33 C22         30.9660    19.6070    32.6500 cd         1 FGW      -0.223600
     34 C23         30.9090    19.7830    31.2690 cc         1 FGW      -0.193000
     35 C31         33.7400    19.4740    28.8430 c          1 FGW       0.650700
     36 N91         31.6070    27.8920    22.5710 ns         1 FGW      -0.510900
     37 C34         33.5560    20.7570    25.3800 cc         1 FGW      -0.025400
     38 N51         34.4260    25.5750    22.3030 na         1 FGW       0.069000
     39 C35         34.6620    19.9220    25.3370 cd         1 FGW      -0.170000
     40 CM3         35.8570    18.3710    26.8400 c3         1 FGW       0.044900
     41 N61         35.9790    22.3830    28.1950 na         1 FGW       0.075000
     42 C32         33.8430    19.8370    27.4220 cd         1 FGW      -0.225600
     43 C41         33.4440    21.5420    23.0680 c          1 FGW       0.543600
     44 N71         33.1730    22.6620    34.4530 na         1 FGW       0.060000
     45 C42         32.6780    22.4640    22.2070 cd         1 FGW       0.359000
     46 C43         31.2970    23.9910    21.5960 cc         1 FGW       0.361900
     47 C44         31.9950    23.6230    20.4640 cd         1 FGW      -0.218000
     48 C91         29.9930    25.9000    20.8280 c          1 FGW       0.598100
     49 C08         21.9030    20.4040    32.2520 c3         1 FGW       0.115000
     50 C51         32.7360    27.4100    22.0050 c          1 FGW       0.640700
     51 C54         34.1440    25.0120    24.4410 cc         1 FGW      -0.017400
     52 C53         33.2530    26.0590    24.1380 cc         1 FGW      -0.184000
     53 C55         34.8570    24.7290    23.2860 cd         1 FGW      -0.172000
     54 CM5         34.9500    25.5360    20.9440 c3         1 FGW       0.059900
     55 C52         33.4350    26.3940    22.8020 cd         1 FGW      -0.228600
     56 C61         35.2240    23.6240    26.1610 c          1 FGW       0.647700
     57 C63         34.0740    23.5130    28.4720 cc         1 FGW      -0.187000
     58 C64         34.3870    22.8620    29.6800 cc         1 FGW      -0.027400
     59 C65         35.5740    22.1730    29.4810 cd         1 FGW      -0.163000
     60 CM6         37.1950    21.7920    27.6550 c3         1 FGW       0.060900
     61 C62         35.0750    23.2040    27.5550 cd         1 FGW      -0.222600
     62 C71         33.9730    22.5670    32.0860 c          1 FGW       0.646700
     63 C74         30.9680    22.9080    34.2120 cc         1 FGW      -0.022400
     64 C75         31.9980    22.7950    35.1370 cd         1 FGW      -0.171000
     65 CM7         34.4690    22.6300    35.1190 c3         1 FGW       0.059900
     66 C72         32.9210    22.7030    33.0970 cd         1 FGW      -0.228600
     67 C81         29.0050    23.2060    35.6470 c          1 FGW       0.543600
     68 C92         29.1170    27.0500    21.2830 c3         1 FGW      -0.143400
     69 C93         29.7520    28.4060    20.9380 c3         1 FGW      -0.095400
     70 C94         30.7620    28.9170    21.9810 c3         1 FGW       0.111000
     71 C33         33.0420    20.7090    26.6920 cc         1 FGW      -0.172000
     72 C73         31.5490    22.8490    32.9290 cc         1 FGW      -0.170000
     73 C07         21.6870    21.8630    31.8150 c3         1 FGW      -0.187400
     74 C06         20.2230    22.1240    31.5200 c          1 FGW       0.591100
     75 O01         19.4590    22.5840    32.3710 o          1 FGW      -0.592100
     76 C83         25.4000    23.6310    35.9620 cc         1 FGW      -0.219000
     77 N81         26.6330    23.5420    36.5530 na         1 FGW      -0.128500
     78 C88         26.7940    23.7140    38.0180 c3         1 FGW       0.098300
     79 C82         27.5380    23.3700    35.5340 cc         1 FGW       0.350000
     80 N82         26.9220    23.3520    34.3550 nd         1 FGW      -0.682000
     81 C84         25.5950    23.5080    34.6080 cd         1 FGW       0.228900
     82 C9          27.3540    22.4710    38.6970 c3         1 FGW      -0.109100
     83 C8          27.5620    24.9920    38.3440 c3         1 FGW      -0.109100
     84 H032        17.6870    24.6080    30.3390 hx         1 FGW       0.106700
     85 H031        19.4280    24.3970    30.1050 hx         1 FGW       0.106700
     86 H041        18.9070    23.0140    28.0230 hc         1 FGW       0.064700
     87 H042        17.2080    23.0320    28.4960 hc         1 FGW       0.064700
     88 H052        17.8030    21.9740    30.6830 h1         1 FGW       0.085200
     89 H051        18.1860    20.9820    29.2750 h1         1 FGW       0.085200
     90 HN02        20.5060    21.4210    29.6350 hn         1 FGW       0.320500
     91 H005        19.8740    26.6350    29.8930 hx         1 FGW       0.100367
     92 H006        18.9780    27.6500    28.7290 hx         1 FGW       0.100367
     93 H004        18.1550    27.0270    30.1860 hx         1 FGW       0.100367
     94 H002        17.3090    26.7100    27.3450 hx         1 FGW       0.100367
     95 H003        16.9930    24.9590    27.3310 hx         1 FGW       0.100367
     96 H001        16.4250    25.9550    28.7010 hx         1 FGW       0.100367
     97 HN03        23.9260    19.9320    31.8820 hn         1 FGW       0.319500
     98 H13         26.0430    20.0510    32.0100 ha         1 FGW       0.119000
     99 HN1         28.5730    19.8600    32.0590 hn         1 FGW       0.320500
    100 H15         27.8330    19.8830    35.9380 h4         1 FGW       0.182000
    101 H111        25.9800    19.9640    37.3330 h1         1 FGW       0.062033
    102 H113        24.6340    20.9710    36.7600 h1         1 FGW       0.062033
    103 H112        24.5060    19.2070    36.6890 h1         1 FGW       0.062033
    104 HN2         31.8140    20.1390    28.8180 hn         1 FGW       0.320500
    105 HN3         32.2720    22.1720    24.5830 hn         1 FGW       0.346500
    106 H25         34.1120    19.2540    31.8900 h4         1 FGW       0.184000
    107 H222        32.1650    19.3820    35.0560 h1         1 FGW       0.068033
    108 H221        33.0830    18.0280    34.3740 h1         1 FGW       0.068033
    109 H223        33.7910    19.6540    34.3900 h1         1 FGW       0.068033
    110 HN4         30.0730    25.1580    22.7330 hn         1 FGW       0.323500
    111 H23         30.0410    20.0210    30.6770 ha         1 FGW       0.118000
    112 HN9         31.2840    27.4680    23.4240 hn         1 FGW       0.307500
    113 H35         35.3310    19.7010    24.5290 h4         1 FGW       0.182000
    114 HN5         33.4430    24.6110    26.3120 hn         1 FGW       0.317500
    115 H333        35.7830    18.0490    27.8700 h1         1 FGW       0.066700
    116 H332        35.7210    17.5210    26.1700 h1         1 FGW       0.066700
    117 H331        36.8420    18.8050    26.6680 h1         1 FGW       0.066700
    118 HN6         32.6760    23.3210    30.7080 hn         1 FGW       0.320500
    119 HN7         28.9820    23.0390    33.6410 hn         1 FGW       0.349500
    120 H44         31.9510    23.9630    19.4480 h4         1 FGW       0.191000
    121 H441        34.5290    21.4340    20.5380 h1         1 FGW       0.070367
    122 H443        33.2640    21.3380    19.2910 h1         1 FGW       0.070367
    123 H442        34.3180    22.7650    19.3750 h1         1 FGW       0.070367
    124 H081        21.2660    20.1770    33.1050 h1         1 FGW       0.067700
    125 H082        21.6340    19.7280    31.4400 h1         1 FGW       0.067700
    126 H53         32.5610    26.5080    24.8310 ha         1 FGW       0.120000
    127 H55         35.6050    23.9810    23.0960 h4         1 FGW       0.179000
    128 H552        35.6810    24.7330    20.8950 h1         1 FGW       0.062033
    129 H553        34.1500    25.3400    20.2320 h1         1 FGW       0.062033
    130 H551        35.4250    26.4790    20.6870 h1         1 FGW       0.062033
    131 H63         33.1910    24.1070    28.2960 ha         1 FGW       0.119000
    132 H65         36.1370    21.5470    30.1460 h4         1 FGW       0.182000
    133 H662        37.5780    21.0950    28.3950 h1         1 FGW       0.063033
    134 H663        36.9830    21.2630    26.7310 h1         1 FGW       0.063033
    135 H661        37.9430    22.5580    27.4540 h1         1 FGW       0.063033
    136 H75         31.9760    22.8020    36.2090 h4         1 FGW       0.178000
    137 H773        34.2900    22.6330    36.1910 h1         1 FGW       0.062700
    138 H772        35.0230    21.7380    34.8410 h1         1 FGW       0.062700
    139 H771        35.0600    23.5040    34.8490 h1         1 FGW       0.062700
    140 H922        28.1740    26.9490    20.7400 hc         1 FGW       0.054200
    141 H921        28.8860    26.9800    22.3470 hc         1 FGW       0.054200
    142 H932        30.2310    28.3240    19.9610 hc         1 FGW       0.067700
    143 H931        28.9680    29.1600    20.8430 hc         1 FGW       0.067700
    144 H942        31.3990    29.6770    21.5280 h1         1 FGW       0.054700
    145 H943        30.2240    29.3810    22.8080 h1         1 FGW       0.054700
    146 H33         32.2320    21.3110    27.0700 ha         1 FGW       0.126000
    147 H73         31.0120    22.8460    31.9960 ha         1 FGW       0.128000
    148 H072        22.2980    22.0730    30.9350 hc         1 FGW       0.072700
    149 H071        21.9890    22.5310    32.6200 hc         1 FGW       0.072700
    150 H84         24.5080    23.7680    36.5490 h4         1 FGW       0.159000
    151 H10         25.7690    23.8470    38.3640 h1         1 FGW       0.049700
    152 H83         24.8570    23.5150    33.8240 h4         1 FGW       0.029100
    153 H993        27.3520    22.6300    39.7770 hc         1 FGW       0.056867
    154 H991        26.7330    21.6020    38.4820 hc         1 FGW       0.056867
    155 H992        28.3710    22.2730    38.3740 hc         1 FGW       0.056867
    156 H883        27.5370    25.1560    39.4220 hc         1 FGW       0.056867
    157 H882        28.6000    24.9150    38.0270 hc         1 FGW       0.056867
    158 H881        27.0990    25.8500    37.8540 hc         1 FGW       0.056867
    159 HN01        19.2170    25.4180    27.9740 hn         1 FGW       0.497000
    160 N22         32.5510    19.8050    29.4190 ns         1 FGW      -0.370100
    161 N32         33.0250    21.5390    24.3540 ns         1 FGW      -0.350100
    162 CM4         33.8100    22.0010    19.9610 c3         1 FGW       0.049900
    163 O41         34.3750    20.8440    22.6560 o          1 FGW      -0.615100
    164 N43         30.3500    24.9940    21.7760 ns         1 FGW      -0.459400
    165 N52         34.2090    24.4020    25.6930 ns         1 FGW      -0.375100
    166 N62         33.5940    22.9230    30.8280 ns         1 FGW      -0.367100
    167 N72         29.6000    23.0400    34.4420 ns         1 FGW      -0.352100
@<TRIPOS>BOND
     1     1     2 1   
     2     1     5 1   
     3     1    84 1   
     4     1    85 1   
     5     2     3 1   
     6     2    86 1   
     7     2    87 1   
     8     3     4 1   
     9     3    88 1   
    10     3    89 1   
    11     4    74 1   
    12     4    90 1   
    13     5     6 1   
    14     5     7 1   
    15     5   159 1   
    16     6    91 1   
    17     6    92 1   
    18     6    93 1   
    19     7    94 1   
    20     7    95 1   
    21     7    96 1   
    22     8     9 1   
    23     8    10 2   
    24     8    21 1   
    25     9    49 1   
    26     9    97 1   
    27    11    14 1   
    28    11    15 1   
    29    11    17 2   
    30    12    17 1   
    31    12    19 1   
    32    12    21 1   
    33    13    24 2   
    34    14    21 2   
    35    14    98 1   
    36    15    24 1   
    37    15    99 1   
    38    16    35 2   
    39    17   100 1   
    40    18    28 1   
    41    18    31 1   
    42    18    33 1   
    43    19   101 1   
    44    19   102 1   
    45    19   103 1   
    46    20    48 2   
    47    22    39 1   
    48    22    40 1   
    49    22    42 1   
    50    23    50 2   
    51    24    33 1   
    52    25    56 2   
    53    26    28 2   
    54    26    34 1   
    55    26   160 1   
    56    27    62 2   
    57    28   106 1   
    58    29    45 1   
    59    29    47 1   
    60    29   162 1   
    61    30    67 2   
    62    31   107 1   
    63    31   108 1   
    64    31   109 1   
    65    32    45 2   
    66    32    46 1   
    67    33    34 2   
    68    34   111 1   
    69    35    42 1   
    70    35   160 1   
    71    36    50 1   
    72    36    70 1   
    73    36   112 1   
    74    37    39 2   
    75    37    71 1   
    76    37   161 1   
    77    38    53 1   
    78    38    54 1   
    79    38    55 1   
    80    39   113 1   
    81    40   115 1   
    82    40   116 1   
    83    40   117 1   
    84    41    59 1   
    85    41    60 1   
    86    41    61 1   
    87    42    71 2   
    88    43    45 1   
    89    43   161 1   
    90    43   163 2   
    91    44    64 1   
    92    44    65 1   
    93    44    66 1   
    94    46    47 2   
    95    46   164 1   
    96    47   120 1   
    97    48    68 1   
    98    48   164 1   
    99    49    73 1   
   100    49   124 1   
   101    49   125 1   
   102    50    55 1   
   103    51    52 1   
   104    51    53 2   
   105    51   165 1   
   106    52    55 2   
   107    52   126 1   
   108    53   127 1   
   109    54   128 1   
   110    54   129 1   
   111    54   130 1   
   112    56    61 1   
   113    56   165 1   
   114    57    58 1   
   115    57    61 2   
   116    57   131 1   
   117    58    59 2   
   118    58   166 1   
   119    59   132 1   
   120    60   133 1   
   121    60   134 1   
   122    60   135 1   
   123    62    66 1   
   124    62   166 1   
   125    63    64 2   
   126    63    72 1   
   127    63   167 1   
   128    64   136 1   
   129    65   137 1   
   130    65   138 1   
   131    65   139 1   
   132    66    72 2   
   133    67    79 1   
   134    67   167 1   
   135    68    69 1   
   136    68   140 1   
   137    68   141 1   
   138    69    70 1   
   139    69   142 1   
   140    69   143 1   
   141    70   144 1   
   142    70   145 1   
   143    71   146 1   
   144    72   147 1   
   145    73    74 1   
   146    73   148 1   
   147    73   149 1   
   148    74    75 2   
   149    76    77 1   
   150    76    81 2   
   151    76   150 1   
   152    77    78 1   
   153    77    79 1   
   154    78    82 1   
   155    78    83 1   
   156    78   151 1   
   157    79    80 2   
   158    80    81 1   
   159    81   152 1   
   160    82   153 1   
   161    82   154 1   
   162    82   155 1   
   163    83   156 1   
   164    83   157 1   
   165    83   158 1   
   166   104   160 1   
   167   105   161 1   
   168   110   164 1   
   169   114   165 1   
   170   118   166 1   
   171   119   167 1   
   172   121   162 1   
   173   122   162 1   
   174   123   162 1   
@<TRIPOS>SUBSTRUCTURE
     1 FGW         1 TEMP              0 ****  ****    0 ROOT
