@<TRIPOS>MOLECULE
FGY
   73    74     1     0     0
SMALL
No Charge or Current Charge


@<TRIPOS>ATOM
      1 C15          4.6120    -1.8350    -1.6300 c          1 FGY       0.594100
      2 C17          7.1060    -2.0880    -1.3910 c3         1 FGY       0.144300
      3 C20          8.8670    -0.7720     1.7530 ca         1 FGY      -0.110500
      4 C21          8.6900     0.6150     1.6140 ca         1 FGY      -0.105000
      5 C22          8.0000     1.1260     0.5010 ca         1 FGY      -0.110500
      6 C28          0.2440     1.6750    -0.1850 c          1 FGY       0.604100
      7 C05         -6.2860    -0.6250     0.7320 ca         1 FGY      -0.139600
      8 C06         -6.2840     0.0810    -0.4910 ca         1 FGY      -0.082000
      9 C07         -5.0950     0.2750    -1.2130 ca         1 FGY      -0.079500
     10 C08         -3.8650    -0.2300    -0.7370 ca         1 FGY      -0.126600
     11 C09         -2.6030     0.0060    -1.5440 c          1 FGY       0.612700
     12 C11         -0.0910    -0.3960    -1.6470 c3         1 FGY       0.053700
     13 C12          0.8960    -1.4130    -0.9910 c          1 FGY       0.615100
     14 C14          3.2420    -2.3760    -1.1250 c3         1 FGY       0.033700
     15 C18          7.6650    -1.1420    -0.3390 ca         1 FGY      -0.115300
     16 C19          8.3550    -1.6480     0.7800 ca         1 FGY      -0.098000
     17 C23          7.4880     0.2500    -0.4720 ca         1 FGY      -0.098000
     18 C25          2.9910    -3.8340    -1.5800 c3         1 FGY      -0.109100
     19 C27          0.4230     1.0720    -1.5770 c3         1 FGY      -0.185400
     20 C30         -1.1450     3.3070     1.1510 c3         1 FGY       0.107000
     21 C31         -0.6430     4.7830     1.1680 c3         1 FGY      -0.068000
     22 C32         -1.2440     5.5710    -0.0270 c3         1 FGY      -0.085100
     23 C33         -1.1050     5.4450     2.4920 c3         1 FGY      -0.085100
     24 C34          0.9070     4.8380     1.0930 c3         1 FGY      -0.085100
     25 C37         -3.8620    -0.9330     0.4910 ca         1 FGY      -0.079500
     26 C38         -5.0540    -1.1270     1.2140 ca         1 FGY      -0.082000
     27 N03         -7.5400    -1.5760     2.6480 ns         1 FGY      -0.374400
     28 N10         -1.4390    -0.5410    -1.0490 ns         1 FGY      -0.486900
     29 N13          2.1430    -1.4920    -1.5750 ns         1 FGY      -0.493900
     30 N16          5.7210    -2.4540    -1.0930 ns         1 FGY      -0.495900
     31 N29         -0.7920     2.5740    -0.0710 ns         1 FGY      -0.501900
     32 O01         -8.6410    -0.3120     1.0960 o          1 FGY      -0.555100
     33 O04         -8.7530    -2.0230     3.3050 oh         1 FGY      -0.433100
     34 O24          4.7080    -0.9230    -2.4430 o          1 FGY      -0.614100
     35 O26          0.5900    -2.1050    -0.0270 o          1 FGY      -0.603100
     36 O35          0.9840     1.3960     0.7460 o          1 FGY      -0.607100
     37 O36         -2.6040     0.6560    -2.5800 o          1 FGY      -0.611100
     38 H1           7.1650    -1.6220    -2.3840 h1         1 FGY       0.065700
     39 H2           7.7120    -3.0040    -1.4230 h1         1 FGY       0.065700
     40 H3           9.3990    -1.1680     2.6150 ha         1 FGY       0.114500
     41 H4           9.0850     1.2930     2.3680 ha         1 FGY       0.113000
     42 H5           7.8610     2.1990     0.3930 ha         1 FGY       0.114500
     43 H6          -7.2120     0.4850    -0.8930 ha         1 FGY       0.129500
     44 H7          -5.1350     0.8240    -2.1520 ha         1 FGY       0.134000
     45 H8          -0.1540    -0.6850    -2.7040 h1         1 FGY       0.083700
     46 H9           3.2800    -2.3520    -0.0280 h1         1 FGY       0.088700
     47 H10          8.4950    -2.7210     0.8970 ha         1 FGY       0.115500
     48 H11          6.9530     0.6520    -1.3290 ha         1 FGY       0.115500
     49 H12          3.7810    -4.5010    -1.2140 hc         1 FGY       0.050367
     50 H13          2.0350    -4.2050    -1.1930 hc         1 FGY       0.050367
     51 H14          2.9670    -3.8990    -2.6740 hc         1 FGY       0.050367
     52 H15         -0.1450     1.6640    -2.3030 hc         1 FGY       0.077200
     53 H16          1.4840     1.1090    -1.8470 hc         1 FGY       0.077200
     54 H17         -0.7430     2.7740     2.0230 h1         1 FGY       0.056700
     55 H18         -2.2390     3.2980     1.2440 h1         1 FGY       0.056700
     56 H19         -2.3400     5.5310    -0.0110 hc         1 FGY       0.035922
     57 H20         -0.9450     6.6260     0.0110 hc         1 FGY       0.035922
     58 H21         -0.9040     5.1640    -0.9870 hc         1 FGY       0.035922
     59 H22         -2.1990     5.4320     2.5760 hc         1 FGY       0.035922
     60 H23         -0.6930     4.9150     3.3600 hc         1 FGY       0.035922
     61 H24         -0.7750     6.4900     2.5460 hc         1 FGY       0.035922
     62 H25          1.2660     5.8720     1.1710 hc         1 FGY       0.035922
     63 H26          1.3590     4.2610     1.9090 hc         1 FGY       0.035922
     64 H27          1.2750     4.4300     0.1440 hc         1 FGY       0.035922
     65 H28         -2.9440    -1.3350     0.9100 ha         1 FGY       0.134000
     66 H29         -4.9950    -1.6680     2.1550 ha         1 FGY       0.129500
     67 H30         -6.6980    -2.1080     2.8580 hn         1 FGY       0.333500
     68 H31         -1.5180    -1.1000    -0.2070 hn         1 FGY       0.352500
     69 H32          2.3250    -0.8760    -2.3610 hn         1 FGY       0.336500
     70 H33          5.5540    -3.1930    -0.4210 hn         1 FGY       0.319500
     71 H34         -1.3440     2.7370    -0.9040 hn         1 FGY       0.312500
     72 H35         -8.6150    -1.7680     4.2480 ho         1 FGY       0.451000
     73 C02         -7.5920    -0.8140     1.4830 c          1 FGY       0.606700
@<TRIPOS>BOND
     1     1    14 1   
     2     1    30 1   
     3     1    34 2   
     4     2    15 1   
     5     2    30 1   
     6     2    38 1   
     7     2    39 1   
     8     3     4 ar  
     9     3    16 ar  
    10     3    40 1   
    11     4     5 ar  
    12     4    41 1   
    13     5    17 ar  
    14     5    42 1   
    15     6    19 1   
    16     6    31 1   
    17     6    36 2   
    18     7     8 ar  
    19     7    26 ar  
    20     7    73 1   
    21     8     9 ar  
    22     8    43 1   
    23     9    10 ar  
    24     9    44 1   
    25    10    11 1   
    26    10    25 ar  
    27    11    28 1   
    28    11    37 2   
    29    12    13 1   
    30    12    19 1   
    31    12    28 1   
    32    12    45 1   
    33    13    29 1   
    34    13    35 2   
    35    14    18 1   
    36    14    29 1   
    37    14    46 1   
    38    15    16 ar  
    39    15    17 ar  
    40    16    47 1   
    41    17    48 1   
    42    18    49 1   
    43    18    50 1   
    44    18    51 1   
    45    19    52 1   
    46    19    53 1   
    47    20    21 1   
    48    20    31 1   
    49    20    54 1   
    50    20    55 1   
    51    21    22 1   
    52    21    23 1   
    53    21    24 1   
    54    22    56 1   
    55    22    57 1   
    56    22    58 1   
    57    23    59 1   
    58    23    60 1   
    59    23    61 1   
    60    24    62 1   
    61    24    63 1   
    62    24    64 1   
    63    25    26 ar  
    64    25    65 1   
    65    26    66 1   
    66    27    33 1   
    67    27    67 1   
    68    27    73 1   
    69    28    68 1   
    70    29    69 1   
    71    30    70 1   
    72    31    71 1   
    73    32    73 2   
    74    33    72 1   
@<TRIPOS>SUBSTRUCTURE
     1 FGY         1 TEMP              0 ****  ****    0 ROOT
