@<TRIPOS>MOLECULE
FGY
   73    74     1     0     0
SMALL
bcc


@<TRIPOS>ATOM
      1 C15          3.8530    -1.0390    -1.5750 c          1 FGY       0.661100
      2 C17          6.2050    -0.7810    -0.8890 c3         1 FGY       0.144300
      3 C20          8.1250     0.6430     2.0590 ca         1 FGY      -0.128500
      4 C21          7.1780     1.4650     2.6520 ca         1 FGY      -0.123000
      5 C22          5.9050     1.5530     2.1020 ca         1 FGY      -0.128500
      6 C28         -0.1600     1.5190    -0.4650 c          1 FGY       0.671100
      7 C05         -6.6610    -1.3540     0.8190 ca         1 FGY      -0.139600
      8 C06         -6.7610    -1.3800    -0.5700 ca         1 FGY      -0.100000
      9 C07         -5.6590    -1.0990    -1.3560 ca         1 FGY      -0.097500
     10 C08         -4.4350    -0.7880    -0.7690 ca         1 FGY      -0.126600
     11 C09         -3.2750    -0.4810    -1.6630 c          1 FGY       0.679700
     12 C11         -0.8450    -0.4710    -1.8700 c3         1 FGY       0.053700
     13 C12          0.2470    -1.3860    -1.3080 c          1 FGY       0.682100
     14 C14          2.6270    -1.9340    -1.4170 c3         1 FGY       0.033700
     15 C18          6.5270    -0.0040     0.3650 ca         1 FGY      -0.115300
     16 C19          7.7980    -0.0890     0.9250 ca         1 FGY      -0.116000
     17 C23          5.5830     0.8240     0.9660 ca         1 FGY      -0.116000
     18 C25          2.7980    -3.2050    -2.2520 c3         1 FGY      -0.109100
     19 C27         -0.4770     1.0110    -1.8570 c3         1 FGY      -0.185400
     20 C30          0.2120     3.5850     0.8380 c3         1 FGY       0.107000
     21 C31          1.6360     4.1650     0.8320 c3         1 FGY      -0.068000
     22 C32          1.8210     5.0990    -0.3640 c3         1 FGY      -0.085100
     23 C33          1.8120     4.9560     2.1280 c3         1 FGY      -0.085100
     24 C34          2.6740     3.0460     0.7750 c3         1 FGY      -0.085100
     25 C37         -4.3420    -0.7360     0.6190 ca         1 FGY      -0.097500
     26 C38         -5.4460    -1.0150     1.4080 ca         1 FGY      -0.100000
     27 N03         -7.6390    -2.1790     2.8340 ns         1 FGY      -0.441400
     28 N10         -2.0620    -0.7260    -1.1470 ns         1 FGY      -0.553900
     29 N13          1.4680    -1.1750    -1.8120 ns         1 FGY      -0.560900
     30 N16          4.9110    -1.4190    -0.8460 ns         1 FGY      -0.562900
     31 N29         -0.1400     2.8570    -0.3600 ns         1 FGY      -0.568900
     32 O01         -9.0060    -1.4100     1.2000 o          1 FGY      -0.555100
     33 O04         -8.6880    -2.6330     3.5770 oh         1 FGY      -0.394100
     34 O24          3.8530    -0.0880    -2.3420 o          1 FGY      -0.614100
     35 O26         -0.0060    -2.2700    -0.5040 o          1 FGY      -0.603100
     36 O35          0.0680     0.7570     0.4630 o          1 FGY      -0.607100
     37 O36         -3.4460    -0.0400    -2.7910 o          1 FGY      -0.611100
     38 H1           6.2280    -0.1190    -1.7550 h1         1 FGY       0.065700
     39 H2           6.9710    -1.5410    -1.0530 h1         1 FGY       0.065700
     40 H3           9.1180     0.5640     2.4820 ha         1 FGY       0.132500
     41 H4           7.4260     2.0310     3.5410 ha         1 FGY       0.131000
     42 H5           5.1600     2.1910     2.5590 ha         1 FGY       0.132500
     43 H6          -7.7030    -1.6280    -1.0400 ha         1 FGY       0.147500
     44 H7          -5.7490    -1.1270    -2.4340 ha         1 FGY       0.152000
     45 H8          -0.9870    -0.7610    -2.9170 h1         1 FGY       0.083700
     46 H9           2.5160    -2.2100    -0.3670 h1         1 FGY       0.088700
     47 H10          8.5390    -0.7380     0.4720 ha         1 FGY       0.133500
     48 H11          4.5850     0.9030     0.5500 ha         1 FGY       0.133500
     49 H12          3.6580    -3.7840    -1.9160 hc         1 FGY       0.050367
     50 H13          1.9140    -3.8340    -2.1580 hc         1 FGY       0.050367
     51 H14          2.9380    -2.9620    -3.3060 hc         1 FGY       0.050367
     52 H15         -1.2960     1.5850    -2.2940 hc         1 FGY       0.077200
     53 H16          0.3770     1.2040    -2.5110 hc         1 FGY       0.077200
     54 H17          0.0880     2.9170     1.6900 h1         1 FGY       0.056700
     55 H18         -0.5070     4.4000     0.9580 h1         1 FGY       0.056700
     56 H19          1.0680     5.8910    -0.3760 hc         1 FGY       0.035922
     57 H20          2.8020     5.5790    -0.3300 hc         1 FGY       0.035922
     58 H21          1.7630     4.5620    -1.3120 hc         1 FGY       0.035922
     59 H22          1.0830     5.7660     2.2030 hc         1 FGY       0.035922
     60 H23          1.6960     4.3170     3.0060 hc         1 FGY       0.035922
     61 H24          2.8070     5.4030     2.1760 hc         1 FGY       0.035922
     62 H25          3.6830     3.4650     0.7970 hc         1 FGY       0.035922
     63 H26          2.5740     2.3690     1.6260 hc         1 FGY       0.035922
     64 H27          2.5890     2.4500    -0.1350 hc         1 FGY       0.035922
     65 H28         -3.4190    -0.4430     1.1040 ha         1 FGY       0.152000
     66 H29         -5.3520    -0.9370     2.4830 ha         1 FGY       0.147500
     67 H30         -6.7680    -2.6500     3.0320 hn         1 FGY       0.333500
     68 H31         -1.9730    -1.2100    -0.2660 hn         1 FGY       0.352500
     69 H32          1.6140    -0.4700    -2.5190 hn         1 FGY       0.336500
     70 H33          4.8030    -2.1890    -0.2040 hn         1 FGY       0.319500
     71 H34         -0.3670     3.3960    -1.1800 hn         1 FGY       0.312500
     72 H35         -8.8530    -1.9550     4.2450 ho         1 FGY       0.412000
     73 C02         -7.8890    -1.6510     1.6160 c          1 FGY       0.673700
@<TRIPOS>BOND
     1     1    14 1   
     2     1    30 1   
     3     1    34 2   
     4     2    15 1   
     5     2    30 1   
     6     2    38 1   
     7     2    39 1   
     8     3     4 ar  
     9     3    16 ar  
    10     3    40 1   
    11     4     5 ar  
    12     4    41 1   
    13     5    17 ar  
    14     5    42 1   
    15     6    19 1   
    16     6    31 1   
    17     6    36 2   
    18     7     8 ar  
    19     7    26 ar  
    20     7    73 1   
    21     8     9 ar  
    22     8    43 1   
    23     9    10 ar  
    24     9    44 1   
    25    10    11 1   
    26    10    25 ar  
    27    11    28 1   
    28    11    37 2   
    29    12    13 1   
    30    12    19 1   
    31    12    28 1   
    32    12    45 1   
    33    13    29 1   
    34    13    35 2   
    35    14    18 1   
    36    14    29 1   
    37    14    46 1   
    38    15    16 ar  
    39    15    17 ar  
    40    16    47 1   
    41    17    48 1   
    42    18    49 1   
    43    18    50 1   
    44    18    51 1   
    45    19    52 1   
    46    19    53 1   
    47    20    21 1   
    48    20    31 1   
    49    20    54 1   
    50    20    55 1   
    51    21    22 1   
    52    21    23 1   
    53    21    24 1   
    54    22    56 1   
    55    22    57 1   
    56    22    58 1   
    57    23    59 1   
    58    23    60 1   
    59    23    61 1   
    60    24    62 1   
    61    24    63 1   
    62    24    64 1   
    63    25    26 ar  
    64    25    65 1   
    65    26    66 1   
    66    27    33 1   
    67    27    67 1   
    68    27    73 1   
    69    28    68 1   
    70    29    69 1   
    71    30    70 1   
    72    31    71 1   
    73    32    73 2   
    74    33    72 1   
@<TRIPOS>SUBSTRUCTURE
     1 FGY         1 TEMP              0 ****  ****    0 ROOT
