@<TRIPOS>MOLECULE
FGZ
   15    15     1     0     0
SMALL
bcc


@<TRIPOS>ATOM
      1 O01         -3.4830    -1.2080     0.0840 o          1 FGZ      -0.817800
      2 C02         -2.9440    -0.0880     0.0240 c          1 FGZ       0.930200
      3 O03         -3.5070     1.0210     0.0020 o          1 FGZ      -0.817800
      4 C04         -1.4210    -0.0730    -0.0280 ca         1 FGZ      -0.156600
      5 C05         -0.6970    -1.2610    -0.0100 ca         1 FGZ      -0.057000
      6 C06          0.6830    -1.2420    -0.0600 ca         1 FGZ      -0.054600
      7 CL1          1.5750    -2.7250    -0.0370 cl         1 FGZ      -0.152400
      8 C08          1.3990    -0.0470    -0.1270 ca         1 FGZ       0.121100
      9 O09          2.7320    -0.0950    -0.1720 oh         1 FGZ      -0.492100
     10 C10          0.6540     1.1330    -0.1420 ca         1 FGZ      -0.054600
     11 CL2          1.5160     2.6390    -0.2250 cl         1 FGZ      -0.152400
     12 C12         -0.7270     1.1290    -0.0940 ca         1 FGZ      -0.057000
     13 H2          -1.2200    -2.2060     0.0430 ha         1 FGZ       0.167500
     14 H3           3.1070     0.7940    -0.2260 ho         1 FGZ       0.425000
     15 H4          -1.2700     2.0640    -0.1090 ha         1 FGZ       0.167500
@<TRIPOS>BOND
     1     1     2 1   
     2     2     3 1   
     3     2     4 1   
     4     4     5 ar  
     5     4    12 ar  
     6     5     6 ar  
     7     5    13 1   
     8     6     7 1   
     9     6     8 ar  
    10     8     9 1   
    11     8    10 ar  
    12     9    14 1   
    13    10    11 1   
    14    10    12 ar  
    15    12    15 1   
@<TRIPOS>SUBSTRUCTURE
     1 FGZ         1 TEMP              0 ****  ****    0 ROOT
