@<TRIPOS>MOLECULE
FGZ
   15    15     1     0     0
SMALL
No Charge or Current Charge


@<TRIPOS>ATOM
      1 O01         -3.5250    -1.1590     0.0840 o          1 FGZ      -0.712500
      2 C02         -2.9470    -0.0830     0.0260 c          1 FGZ       0.719600
      3 O03         -3.5350     0.9890     0.0080 o          1 FGZ      -0.712500
      4 C04         -1.4330    -0.0780    -0.0280 ca         1 FGZ      -0.156600
      5 C05         -0.7050    -1.2910    -0.0100 ca         1 FGZ      -0.039000
      6 C06          0.7000    -1.2890    -0.0590 ca         1 FGZ       0.037000
      7 Cl1          1.5560    -2.8340    -0.0330 cl         1 FGZ      -0.244000
      8 C08          1.4050    -0.0690    -0.1270 ca         1 FGZ       0.121100
      9 O09          2.7760    -0.0530    -0.1760 oh         1 FGZ      -0.531100
     10 C10          0.6880     1.1440    -0.1460 ca         1 FGZ       0.037000
     11 Cl2          1.5430     2.6860    -0.2310 cl         1 FGZ      -0.244000
     12 C12         -0.7170     1.1400    -0.0970 ca         1 FGZ      -0.039000
     13 H2          -1.2270    -2.2440     0.0430 ha         1 FGZ       0.149500
     14 H3           3.0620     0.8860    -0.2200 ho         1 FGZ       0.464000
     15 H4          -1.2460     2.0900    -0.1120 ha         1 FGZ       0.149500
@<TRIPOS>BOND
     1     1     2 1   
     2     2     3 1   
     3     2     4 1   
     4     4     5 ar  
     5     4    12 ar  
     6     5     6 ar  
     7     5    13 1   
     8     6     7 1   
     9     6     8 ar  
    10     8     9 1   
    11     8    10 ar  
    12     9    14 1   
    13    10    11 1   
    14    10    12 ar  
    15    12    15 1   
@<TRIPOS>SUBSTRUCTURE
     1 FGZ         1 TEMP              0 ****  ****    0 ROOT
