@<TRIPOS>MOLECULE
FH0
   63    68     1     0     0
SMALL
No Charge or Current Charge


@<TRIPOS>ATOM
      1 C01        -25.0580    66.2830   -10.4150 c3         1 FH0       0.152100
      2 N02        -25.5060    65.1420    -9.5880 n3         1 FH0      -0.714600
      3 C03        -26.9050    64.7170    -9.9000 c6         1 FH0       0.157300
      4 C04        -27.3990    63.5400    -8.9960 c6         1 FH0       0.197300
      5 N05        -26.4600    62.3710    -9.0050 nh         1 FH0      -0.787400
      6 C06        -25.0340    62.7730    -8.7730 c6         1 FH0       0.197300
      7 C07        -24.5890    63.9660    -9.6820 c6         1 FH0       0.157300
      8 C08        -26.8950    61.0740    -8.6460 ca         1 FH0       0.289000
      9 C09        -26.2220    59.9450    -9.1480 ca         1 FH0      -0.153500
     10 C10        -26.6380    58.6450    -8.8050 ca         1 FH0      -0.090500
     11 C11        -27.7350    58.4490    -7.9410 ca         1 FH0       0.261000
     12 N12        -28.1880    57.1720    -7.5730 nu         1 FH0      -0.944900
     13 C13        -27.5820    55.9300    -7.4320 ca         1 FH0       0.389900
     14 N14        -28.4170    54.9240    -7.1270 nb         1 FH0      -0.247000
     15 C15        -27.8570    53.7110    -6.9620 ca         1 FH0       0.147900
     16 C16        -26.4740    53.5200    -7.1010 ca         1 FH0      -0.272000
     17 C17        -25.6800    54.6370    -7.4210 ca         1 FH0       0.265500
     18 N18        -26.2500    55.8470    -7.5850 nb         1 FH0      -0.262000
     19 C19        -24.2290    54.5120    -7.6040 cc         1 FH0      -0.268500
     20 C20        -23.3630    55.4760    -7.1600 cd         1 FH0      -0.118300
     21 C21        -23.5990    56.8170    -6.4890 c6         1 FH0       0.214900
     22 O22        -22.3590    57.2510    -5.8670 os         1 FH0      -0.439000
     23 C23        -21.1810    57.1370    -6.7100 c6         1 FH0       0.132600
     24 C24        -20.8650    55.6500    -7.0320 c6         1 FH0       0.048600
     25 N25        -22.1050    54.9480    -7.4010 na         1 FH0       0.142800
     26 N26        -22.1320    53.6930    -7.9780 nd         1 FH0      -0.511800
     27 C27        -23.4260    53.4480    -8.0990 cc         1 FH0       0.336500
     28 C28        -23.8820    52.2590    -8.8320 ca         1 FH0      -0.173500
     29 C29        -25.1030    52.2220    -9.5400 ca         1 FH0      -0.056000
     30 C30        -25.4320    51.0630   -10.2600 ca         1 FH0      -0.170000
     31 C31        -24.5330    49.9870   -10.2800 ca         1 FH0       0.338900
     32 N32        -23.3400    50.0220    -9.6460 nb         1 FH0      -0.669000
     33 C33        -23.0240    51.1430    -8.9540 ca         1 FH0       0.361900
     34 C34        -28.4210    59.5760    -7.4550 ca         1 FH0      -0.090500
     35 C35        -28.0050    60.8760    -7.8000 ca         1 FH0      -0.153500
     36 H1         -25.7290    67.1430   -10.2850 h1         1 FH0       0.031700
     37 H2         -24.0460    66.5970   -10.1270 h1         1 FH0       0.031700
     38 H3         -25.0450    66.0150   -11.4800 h1         1 FH0       0.031700
     39 H4         -27.5970    65.5640    -9.7780 h1         1 FH0       0.039950
     40 H5         -28.3940    63.2310    -9.3500 h1         1 FH0       0.044450
     41 H6         -24.3540    61.9300    -8.9570 h1         1 FH0       0.044450
     42 H7         -23.5670    64.2570    -9.3980 h1         1 FH0       0.039950
     43 H8         -25.3820    60.0730    -9.8250 ha         1 FH0       0.115500
     44 H9         -26.1130    57.7980    -9.2340 ha         1 FH0       0.120500
     45 H10        -29.1530    57.1590    -7.2410 hn         1 FH0       0.513000
     46 H11        -28.5230    52.8870    -6.7110 h4         1 FH0       0.021100
     47 H12        -26.0340    52.5390    -6.9480 ha         1 FH0       0.142000
     48 H13        -23.9140    57.5660    -7.2310 h1         1 FH0       0.085700
     49 H14        -24.3800    56.7450    -5.7190 h1         1 FH0       0.085700
     50 H15        -20.3230    57.5970    -6.1990 h1         1 FH0       0.062200
     51 H16        -21.3540    57.6930    -7.6430 h1         1 FH0       0.062200
     52 H17        -20.1420    55.5840    -7.8550 h1         1 FH0       0.077200
     53 H18        -20.4320    55.1620    -6.1490 h1         1 FH0       0.077200
     54 H19        -25.7720    53.0770    -9.5720 ha         1 FH0       0.127000
     55 H20        -26.3660    50.9990   -10.8120 ha         1 FH0       0.125000
     56 H21        -24.7650    49.0780   -10.8330 h4         1 FH0       0.019100
     57 H22        -22.0520    51.1260    -8.4600 h4         1 FH0       0.029100
     58 H23        -29.2750    59.4490    -6.7950 ha         1 FH0       0.120500
     59 H24        -28.5440    61.7250    -7.3920 ha         1 FH0       0.115500
     60 H28        -24.9040    63.0670    -7.7210 h1         1 FH0       0.044450
     61 H27        -24.5410    63.6090   -10.7220 h1         1 FH0       0.039950
     62 H25        -27.5170    63.9130    -7.9680 h1         1 FH0       0.044450
     63 H26        -26.9740    64.3980   -10.9510 h1         1 FH0       0.039950
@<TRIPOS>BOND
     1     1     2 1   
     2     1    36 1   
     3     1    37 1   
     4     1    38 1   
     5     2     3 1   
     6     2     7 1   
     7     3     4 1   
     8     3    39 1   
     9     3    63 1   
    10     4     5 1   
    11     4    40 1   
    12     4    62 1   
    13     5     6 1   
    14     5     8 1   
    15     6     7 1   
    16     6    41 1   
    17     6    60 1   
    18     7    42 1   
    19     7    61 1   
    20     8     9 ar  
    21     8    35 ar  
    22     9    10 ar  
    23     9    43 1   
    24    10    11 ar  
    25    10    44 1   
    26    11    12 1   
    27    11    34 ar  
    28    12    13 1   
    29    12    45 1   
    30    13    14 ar  
    31    13    18 ar  
    32    14    15 ar  
    33    15    16 ar  
    34    15    46 1   
    35    16    17 ar  
    36    16    47 1   
    37    17    18 ar  
    38    17    19 1   
    39    19    20 2   
    40    19    27 1   
    41    20    21 1   
    42    20    25 1   
    43    21    22 1   
    44    21    48 1   
    45    21    49 1   
    46    22    23 1   
    47    23    24 1   
    48    23    50 1   
    49    23    51 1   
    50    24    25 1   
    51    24    52 1   
    52    24    53 1   
    53    25    26 1   
    54    26    27 2   
    55    27    28 1   
    56    28    29 ar  
    57    28    33 ar  
    58    29    30 ar  
    59    29    54 1   
    60    30    31 ar  
    61    30    55 1   
    62    31    32 ar  
    63    31    56 1   
    64    32    33 ar  
    65    33    57 1   
    66    34    35 ar  
    67    34    58 1   
    68    35    59 1   
@<TRIPOS>SUBSTRUCTURE
     1 FH0         1 TEMP              0 ****  ****    0 ROOT
