@<TRIPOS>MOLECULE
FH0
   63    68     1     0     0
SMALL
abcg2


@<TRIPOS>ATOM
      1 C01        -24.5150    65.8100    -9.8220 c3         1 FH0       0.152100
      2 N02        -24.9130    64.5530    -9.2330 n3         1 FH0      -0.714600
      3 C03        -26.3290    64.5200    -8.9380 c6         1 FH0       0.157300
      4 C04        -26.7150    63.2280    -8.2410 c6         1 FH0       0.197300
      5 N05        -26.3330    62.0860    -9.0460 nh         1 FH0      -0.787400
      6 C06        -24.9180    62.1220    -9.3910 c6         1 FH0       0.197300
      7 C07        -24.5660    63.4280   -10.0750 c6         1 FH0       0.157300
      8 C08        -26.8820    60.8450    -8.7250 ca         1 FH0       0.289000
      9 C09        -26.6460    59.7330    -9.5480 ca         1 FH0      -0.153500
     10 C10        -27.2030    58.5000    -9.2770 ca         1 FH0      -0.090500
     11 C11        -28.0170    58.3130    -8.1600 ca         1 FH0       0.261000
     12 N12        -28.6070    57.0660    -7.8810 nu         1 FH0      -0.944900
     13 C13        -27.9380    55.8950    -7.7260 ca         1 FH0       0.389900
     14 N14        -28.6870    54.8230    -7.4470 nb         1 FH0      -0.247000
     15 C15        -28.0250    53.6900    -7.2770 ca         1 FH0       0.147900
     16 C16        -26.6500    53.5820    -7.3840 ca         1 FH0      -0.272000
     17 C17        -25.9650    54.7580    -7.6920 ca         1 FH0       0.265500
     18 N18        -26.6160    55.9050    -7.8580 nb         1 FH0      -0.262000
     19 C19        -24.5160    54.8390    -7.7930 cc         1 FH0      -0.268500
     20 C20        -23.7690    55.9740    -7.5090 cd         1 FH0      -0.118300
     21 C21        -24.1220    57.3700    -7.1060 c6         1 FH0       0.214900
     22 O22        -23.0120    58.0280    -6.5470 os         1 FH0      -0.439000
     23 C23        -21.8700    57.9240    -7.3670 c6         1 FH0       0.132600
     24 C24        -21.3600    56.4940    -7.3810 c6         1 FH0       0.048600
     25 N25        -22.4860    55.6230    -7.6450 na         1 FH0       0.142800
     26 N26        -22.3240    54.3520    -8.0010 nd         1 FH0      -0.511800
     27 C27        -23.5440    53.8560    -8.1010 cc         1 FH0       0.336500
     28 C28        -23.7260    52.4690    -8.5410 ca         1 FH0      -0.173500
     29 C29        -24.6560    52.1220    -9.5170 ca         1 FH0      -0.056000
     30 C30        -24.7550    50.8000    -9.9120 ca         1 FH0      -0.170000
     31 C31        -23.9130    49.8670    -9.3260 ca         1 FH0       0.338900
     32 N32        -23.0150    50.1820    -8.3990 nb         1 FH0      -0.669000
     33 C33        -22.9300    51.4500    -8.0210 ca         1 FH0       0.361900
     34 C34        -28.2670    59.4050    -7.3440 ca         1 FH0      -0.090500
     35 C35        -27.7140    60.6500    -7.6180 ca         1 FH0      -0.153500
     36 H1         -24.7510    66.6320    -9.1440 h1         1 FH0       0.031700
     37 H2         -23.4370    65.8180    -9.9930 h1         1 FH0       0.031700
     38 H3         -25.0080    66.0170   -10.7840 h1         1 FH0       0.031700
     39 H4         -26.5810    65.3580    -8.2840 h1         1 FH0       0.039950
     40 H5         -27.7970    63.2330    -8.1020 h1         1 FH0       0.044450
     41 H6         -24.6700    61.3040   -10.0640 h1         1 FH0       0.044450
     42 H7         -23.4910    63.4420   -10.2710 h1         1 FH0       0.039950
     43 H8         -26.0440    59.8330   -10.4420 ha         1 FH0       0.115500
     44 H9         -27.0110    57.6760    -9.9510 ha         1 FH0       0.120500
     45 H10        -29.5780    57.0520    -7.6120 hn         1 FH0       0.513000
     46 H11        -28.6210    52.8160    -7.0360 h4         1 FH0       0.021100
     47 H12        -26.1490    52.6430    -7.2090 ha         1 FH0       0.142000
     48 H13        -24.5090    57.9140    -7.9790 h1         1 FH0       0.085700
     49 H14        -24.9160    57.3610    -6.3600 h1         1 FH0       0.085700
     50 H15        -21.1030    58.5810    -6.9600 h1         1 FH0       0.062200
     51 H16        -22.0910    58.2570    -8.3900 h1         1 FH0       0.062200
     52 H17        -20.6120    56.3580    -8.1610 h1         1 FH0       0.077200
     53 H18        -20.9130    56.2230    -6.4230 h1         1 FH0       0.077200
     54 H19        -25.2860    52.8770    -9.9700 ha         1 FH0       0.127000
     55 H20        -25.4650    50.4960   -10.6690 ha         1 FH0       0.125000
     56 H21        -23.9640    48.8240    -9.6180 h4         1 FH0       0.019100
     57 H22        -22.1950    51.6780    -7.2560 h4         1 FH0       0.029100
     58 H23        -28.8920    59.2880    -6.4670 ha         1 FH0       0.120500
     59 H24        -27.9290    61.4590    -6.9340 ha         1 FH0       0.115500
     60 H28        -24.2980    62.0060    -8.4900 h1         1 FH0       0.044450
     61 H27        -25.0760    63.4760   -11.0530 h1         1 FH0       0.039950
     62 H25        -26.2530    63.1970    -7.2420 h1         1 FH0       0.044450
     63 H26        -26.9380    64.6270    -9.8540 h1         1 FH0       0.039950
@<TRIPOS>BOND
     1     1     2 1   
     2     1    36 1   
     3     1    37 1   
     4     1    38 1   
     5     2     3 1   
     6     2     7 1   
     7     3     4 1   
     8     3    39 1   
     9     3    63 1   
    10     4     5 1   
    11     4    40 1   
    12     4    62 1   
    13     5     6 1   
    14     5     8 1   
    15     6     7 1   
    16     6    41 1   
    17     6    60 1   
    18     7    42 1   
    19     7    61 1   
    20     8     9 ar  
    21     8    35 ar  
    22     9    10 ar  
    23     9    43 1   
    24    10    11 ar  
    25    10    44 1   
    26    11    12 1   
    27    11    34 ar  
    28    12    13 1   
    29    12    45 1   
    30    13    14 ar  
    31    13    18 ar  
    32    14    15 ar  
    33    15    16 ar  
    34    15    46 1   
    35    16    17 ar  
    36    16    47 1   
    37    17    18 ar  
    38    17    19 1   
    39    19    20 2   
    40    19    27 1   
    41    20    21 1   
    42    20    25 1   
    43    21    22 1   
    44    21    48 1   
    45    21    49 1   
    46    22    23 1   
    47    23    24 1   
    48    23    50 1   
    49    23    51 1   
    50    24    25 1   
    51    24    52 1   
    52    24    53 1   
    53    25    26 1   
    54    26    27 2   
    55    27    28 1   
    56    28    29 ar  
    57    28    33 ar  
    58    29    30 ar  
    59    29    54 1   
    60    30    31 ar  
    61    30    55 1   
    62    31    32 ar  
    63    31    56 1   
    64    32    33 ar  
    65    33    57 1   
    66    34    35 ar  
    67    34    58 1   
    68    35    59 1   
@<TRIPOS>SUBSTRUCTURE
     1 FH0         1 TEMP              0 ****  ****    0 ROOT
