@<TRIPOS>MOLECULE
FH1
  103   108     1     0     0
SMALL
No Charge or Current Charge


@<TRIPOS>ATOM
      1 C13        -13.5380    -9.9690    14.7770 c5         1 FH1       0.029700
      2 C21        -21.6750   -10.9410    15.6540 c5         1 FH1       0.188300
      3 C22        -22.5930   -10.3670    16.7770 c5         1 FH1      -0.091900
      4 C24        -17.4370    -8.3230    12.8420 c3         1 FH1      -0.041000
      5 C26        -18.7720    -8.3660    12.0440 c3         1 FH1      -0.089767
      6 C01        -16.0440    -9.5860    14.6960 c          1 FH1       0.591100
      7 C02        -13.5040   -11.9330    13.3490 c5         1 FH1       0.165300
      8 C03        -12.6230   -10.7190    13.7590 c5         1 FH1      -0.112400
      9 C04        -14.8990   -11.2720    13.1700 c5         1 FH1       0.104000
     10 C05        -12.3190    -4.0320    16.0080 c2         1 FH1      -0.289000
     11 C07        -11.6270    -6.2720    16.8870 cx         1 FH1      -0.025500
     12 C08        -10.4250    -7.1250    17.2040 cx         1 FH1      -0.091400
     13 C09        -11.0950    -7.2430    15.8480 cx         1 FH1      -0.070600
     14 C11        -13.0580    -8.4900    14.9050 c          1 FH1       0.599100
     15 C16        -17.3560    -9.5470    13.8380 c3         1 FH1       0.059700
     16 C23        -21.3080   -12.3920    16.1290 c5         1 FH1      -0.091900
     17 C25        -17.3700    -6.9750    13.6150 c3         1 FH1      -0.089767
     18 C27        -16.2780    -8.3540    11.8090 c3         1 FH1      -0.089767
     19 C29        -12.4300   -13.5420    14.7140 ca         1 FH1       0.549300
     20 C30        -12.0670   -13.8440    16.0680 ca         1 FH1       0.319300
     21 C31        -12.9120   -13.3830    17.2480 c3         1 FH1      -0.138400
     22 C33        -10.1820   -14.9590    15.3340 ca         1 FH1       0.168000
     23 C34         -9.0030   -15.6870    15.5790 ca         1 FH1      -0.029000
     24 C35         -8.1990   -16.1340    14.5170 ca         1 FH1      -0.136000
     25 C36         -8.5590   -15.8610    13.1910 ca         1 FH1       0.163100
     26 C37         -9.7370   -15.1340    12.9250 ca         1 FH1      -0.200000
     27 C38        -10.5520   -14.6790    13.9750 ca         1 FH1       0.302000
     28 C41         -8.0060   -16.1010    10.7960 c3         1 FH1       0.145900
     29 C42        -10.3510    -6.6650    14.6390 c          1 FH1       0.675100
     30 C48        -10.7920    -7.1430    11.1530 cx         1 FH1      -0.413000
     31 C49         -9.6310    -8.1110    11.3010 cx         1 FH1      -0.079400
     32 C50         -9.7700    -7.2890    10.0380 cx         1 FH1      -0.079400
     33 C51        -22.2380   -11.2400    18.0060 c5         1 FH1      -0.079400
     34 C52        -22.2350   -12.6390    17.3500 c5         1 FH1      -0.079400
     35 C53        -12.2120    -7.6860    10.9470 c3         1 FH1      -0.042100
     36 N10        -11.8790    -8.4480    15.6280 ns         1 FH1      -0.487900
     37 N14        -14.8720   -10.1410    14.1370 n          1 FH1      -0.393800
     38 N17        -18.5160    -9.5890    14.7590 ns         1 FH1      -0.478900
     39 N32        -10.9420   -14.5430    16.3820 nb         1 FH1      -0.610000
     40 N39        -11.6750   -13.9800    13.6680 nb         1 FH1      -0.754000
     41 N44        -11.1740    -6.1350    13.7030 ns         1 FH1      -0.577300
     42 O12        -13.5880    -7.4880    14.4410 o          1 FH1      -0.566100
     43 O15        -16.0100    -9.1090    15.8280 o          1 FH1      -0.617100
     44 O19        -19.8100   -11.1420    13.6740 o          1 FH1      -0.556000
     45 O20        -20.4670   -10.1370    15.6510 os         1 FH1      -0.463100
     46 O28        -13.6140   -12.8530    14.4790 os         1 FH1      -0.455300
     47 O40         -7.7300   -16.3260    12.1900 os         1 FH1      -0.342100
     48 O43         -9.1350    -6.7170    14.5260 o          1 FH1      -0.542100
     49 S45        -10.7980    -5.5710    12.1850 s6         1 FH1       1.279800
     50 H131       -13.5210   -10.4390    15.7700 h1         1 FH1       0.073700
     51 H211       -22.1670   -10.9040    14.6710 h1         1 FH1       0.074700
     52 H221       -22.4250    -9.2990    16.9580 hc         1 FH1       0.057200
     53 H222       -23.6500   -10.4800    16.5070 hc         1 FH1       0.057200
     54 H261       -19.6400    -8.2340    12.7010 hc         1 FH1       0.042367
     55 H262       -18.8070    -7.5660    11.2940 hc         1 FH1       0.042367
     56 H263       -18.8840    -9.3230    11.5200 hc         1 FH1       0.042367
     57 H021       -13.1780   -12.4490    12.4340 h1         1 FH1       0.089700
     58 H032       -11.6540   -11.0030    14.1840 hc         1 FH1       0.075700
     59 H031       -12.4090   -10.0970    12.8820 hc         1 FH1       0.075700
     60 H041       -15.0210   -10.9090    12.1420 h1         1 FH1       0.080700
     61 H042       -15.7070   -11.9850    13.3810 h1         1 FH1       0.080700
     62 H052       -13.1970    -4.4490    15.5140 ha         1 FH1       0.165500
     63 H051       -12.1660    -2.9560    15.9090 ha         1 FH1       0.165500
     64 H061       -10.6040    -4.3520    17.2020 ha         1 FH1       0.193000
     65 H071       -12.5570    -6.5490    17.3800 hc         1 FH1       0.098700
     66 H081       -10.5590    -7.9360    17.9160 hc         1 FH1       0.089700
     67 H082        -9.4540    -6.6380    17.2580 hc         1 FH1       0.089700
     68 H161       -17.3770   -10.4660    13.2420 h1         1 FH1       0.085700
     69 H231       -21.4720   -13.1330    15.3390 hc         1 FH1       0.057200
     70 H232       -20.2540   -12.4690    16.4230 hc         1 FH1       0.057200
     71 H253       -18.1820    -6.8930    14.3460 hc         1 FH1       0.042367
     72 H251       -16.4190    -6.8680    14.1500 hc         1 FH1       0.042367
     73 H252       -17.4570    -6.1260    12.9250 hc         1 FH1       0.042367
     74 H272       -15.2990    -8.2640    12.2920 hc         1 FH1       0.042367
     75 H271       -16.2960    -9.2820    11.2250 hc         1 FH1       0.042367
     76 H273       -16.3630    -7.5200    11.1010 hc         1 FH1       0.042367
     77 H313       -12.5680   -13.8180    18.1930 hc         1 FH1       0.061033
     78 H311       -12.8750   -12.2920    17.3480 hc         1 FH1       0.061033
     79 H312       -13.9610   -13.6720    17.1130 hc         1 FH1       0.061033
     80 H341        -8.7120   -15.9070    16.6030 ha         1 FH1       0.137000
     81 H351        -7.2910   -16.6950    14.7240 ha         1 FH1       0.137000
     82 H371       -10.0380   -14.9100    11.9080 ha         1 FH1       0.131000
     83 H412        -7.2230   -16.5530    10.1760 h1         1 FH1       0.046367
     84 H411        -8.9660   -16.5490    10.5100 h1         1 FH1       0.046367
     85 H413        -8.0380   -15.0270    10.5730 h1         1 FH1       0.046367
     86 H491        -9.8360    -9.1770    11.2350 hc         1 FH1       0.089700
     87 H492        -8.8180    -7.8530    11.9770 hc         1 FH1       0.089700
     88 H501       -10.0690    -7.8090     9.1300 hc         1 FH1       0.089700
     89 H502        -9.0520    -6.4870     9.8780 hc         1 FH1       0.089700
     90 H512       -21.2580   -10.9790    18.4270 hc         1 FH1       0.047450
     91 H511       -22.9780   -11.1530    18.8100 hc         1 FH1       0.047450
     92 H522       -23.2420   -12.9460    17.0420 hc         1 FH1       0.047450
     93 H521       -21.8460   -13.4160    18.0190 hc         1 FH1       0.047450
     94 H531       -12.7160    -7.8660    11.9030 hc         1 FH1       0.054700
     95 H532       -12.8280    -6.9840    10.3720 hc         1 FH1       0.054700
     96 H533       -12.2030    -8.6360    10.3990 hc         1 FH1       0.054700
     97 H101       -11.5250    -9.3360    15.9670 hn         1 FH1       0.322500
     98 H171       -18.4890    -9.0270    15.6000 hn         1 FH1       0.336500
     99 H441       -12.1680    -6.2070    13.8490 hn         1 FH1       0.329500
    100 C18        -19.6240   -10.3710    14.6020 c          1 FH1       0.632100
    101 C06        -11.4710    -4.8010    16.7090 c2         1 FH1      -0.200200
    102 O46         -9.4380    -5.0190    12.1950 o          1 FH1      -0.522500
    103 O47        -11.9260    -4.7490    11.7340 o          1 FH1      -0.522500
@<TRIPOS>BOND
     1     1     8 1   
     2     1    14 1   
     3     1    37 1   
     4     1    50 1   
     5     2     3 1   
     6     2    16 1   
     7     2    45 1   
     8     2    51 1   
     9     3    33 1   
    10     3    52 1   
    11     3    53 1   
    12     4     5 1   
    13     4    15 1   
    14     4    17 1   
    15     4    18 1   
    16     5    54 1   
    17     5    55 1   
    18     5    56 1   
    19     6    15 1   
    20     6    37 1   
    21     6    43 2   
    22     7     8 1   
    23     7     9 1   
    24     7    46 1   
    25     7    57 1   
    26     8    58 1   
    27     8    59 1   
    28     9    37 1   
    29     9    60 1   
    30     9    61 1   
    31    10    62 1   
    32    10    63 1   
    33    10   101 2   
    34    11    12 1   
    35    11    13 1   
    36    11    65 1   
    37    11   101 1   
    38    12    13 1   
    39    12    66 1   
    40    12    67 1   
    41    13    29 1   
    42    13    36 1   
    43    14    36 1   
    44    14    42 2   
    45    15    38 1   
    46    15    68 1   
    47    16    34 1   
    48    16    69 1   
    49    16    70 1   
    50    17    71 1   
    51    17    72 1   
    52    17    73 1   
    53    18    74 1   
    54    18    75 1   
    55    18    76 1   
    56    19    20 ar  
    57    19    40 ar  
    58    19    46 1   
    59    20    21 1   
    60    20    39 ar  
    61    21    77 1   
    62    21    78 1   
    63    21    79 1   
    64    22    23 ar  
    65    22    27 ar  
    66    22    39 ar  
    67    23    24 ar  
    68    23    80 1   
    69    24    25 ar  
    70    24    81 1   
    71    25    26 ar  
    72    25    47 1   
    73    26    27 ar  
    74    26    82 1   
    75    27    40 ar  
    76    28    47 1   
    77    28    83 1   
    78    28    84 1   
    79    28    85 1   
    80    29    41 1   
    81    29    48 2   
    82    30    31 1   
    83    30    32 1   
    84    30    35 1   
    85    30    49 1   
    86    31    32 1   
    87    31    86 1   
    88    31    87 1   
    89    32    88 1   
    90    32    89 1   
    91    33    34 1   
    92    33    90 1   
    93    33    91 1   
    94    34    92 1   
    95    34    93 1   
    96    35    94 1   
    97    35    95 1   
    98    35    96 1   
    99    36    97 1   
   100    38    98 1   
   101    38   100 1   
   102    41    49 1   
   103    41    99 1   
   104    44   100 2   
   105    45   100 1   
   106    49   102 2   
   107    49   103 2   
   108    64   101 1   
@<TRIPOS>SUBSTRUCTURE
     1 FH1         1 TEMP              0 ****  ****    0 ROOT
