@<TRIPOS>MOLECULE
FH1
  103   108     1     0     0
SMALL
abcg2


@<TRIPOS>ATOM
      1 C13        -13.9090    -9.3510    14.2800 c5         1 FH1       0.029700
      2 C21        -19.8910   -12.1710    16.1890 c5         1 FH1       0.188300
      3 C22        -20.9640   -12.1130    17.2700 c5         1 FH1      -0.091900
      4 C24        -18.0650    -7.5260    12.8370 c3         1 FH1      -0.041000
      5 C26        -19.3570    -7.8270    12.0670 c3         1 FH1      -0.089767
      6 C01        -16.2480    -8.7380    14.2070 c          1 FH1       0.591100
      7 C02        -14.0250   -11.2020    12.7440 c5         1 FH1       0.165300
      8 C03        -13.0310   -10.2490    13.3930 c5         1 FH1      -0.112400
      9 C04        -15.2460   -10.3330    12.5060 c5         1 FH1       0.104000
     10 C05        -13.3700    -3.1650    14.5890 c2         1 FH1      -0.289000
     11 C07        -12.7640    -5.2160    15.8080 cx         1 FH1      -0.025500
     12 C08        -11.9860    -5.7960    16.9420 cx         1 FH1      -0.091400
     13 C09        -11.8650    -6.4540    15.5910 cx         1 FH1      -0.070600
     14 C11        -13.3450    -7.9360    14.3290 c          1 FH1       0.599100
     15 C16        -17.6280    -8.8380    13.5520 c3         1 FH1       0.059700
     16 C23        -18.6630   -12.8100    16.8660 c5         1 FH1      -0.091900
     17 C25        -18.3170    -6.3770    13.8210 c3         1 FH1      -0.089767
     18 C27        -16.9670    -7.1180    11.8460 c3         1 FH1      -0.089767
     19 C29        -13.5730   -13.2330    13.9260 ca         1 FH1       0.549300
     20 C30        -14.0340   -14.2140    14.8740 ca         1 FH1       0.319300
     21 C31        -15.3820   -14.0740    15.5070 c3         1 FH1      -0.138400
     22 C33        -12.0310   -15.3090    14.5950 ca         1 FH1       0.168000
     23 C34        -11.1660   -16.3780    14.9140 ca         1 FH1      -0.029000
     24 C35         -9.9230   -16.4590    14.3450 ca         1 FH1      -0.136000
     25 C36         -9.4880   -15.4690    13.4290 ca         1 FH1       0.163100
     26 C37        -10.3150   -14.4180    13.0880 ca         1 FH1      -0.200000
     27 C38        -11.5950   -14.3290    13.6690 ca         1 FH1       0.302000
     28 C41         -7.7290   -14.6850    12.0170 c3         1 FH1       0.145900
     29 C42        -10.5640    -6.3010    14.8610 c          1 FH1       0.675100
     30 C48         -9.2670    -8.9030    12.1710 cx         1 FH1      -0.413000
     31 C49         -9.2150   -10.2520    12.8510 cx         1 FH1      -0.079400
     32 C50         -8.1490    -9.8730    11.8720 cx         1 FH1      -0.079400
     33 C51        -20.1730   -11.8870    18.5620 c5         1 FH1      -0.079400
     34 C52        -18.9540   -12.8070    18.3870 c5         1 FH1      -0.079400
     35 C53        -10.3130    -8.5930    11.1270 c3         1 FH1      -0.042100
     36 N10        -12.5630    -7.6880    15.4100 ns         1 FH1      -0.487900
     37 N14        -15.2220    -9.3990    13.6410 n          1 FH1      -0.393800
     38 N17        -18.5770    -9.2780    14.5560 ns         1 FH1      -0.478900
     39 N32        -13.2610   -15.2220    15.1780 nb         1 FH1      -0.610000
     40 N39        -12.4120   -13.2860    13.3440 nb         1 FH1      -0.754000
     41 N44        -10.2150    -7.3950    14.0960 ns         1 FH1      -0.577300
     42 O12        -13.4960    -7.1400    13.4150 o          1 FH1      -0.566100
     43 O15        -16.0850    -8.0840    15.2400 o          1 FH1      -0.617100
     44 O19        -18.5140   -11.4820    13.9540 o          1 FH1      -0.556000
     45 O20        -19.6050   -10.7890    15.8220 os         1 FH1      -0.463100
     46 O28        -14.4350   -12.2340    13.6680 os         1 FH1      -0.455300
     47 O40         -8.2350   -15.6470    12.9440 os         1 FH1      -0.342100
     48 O43         -9.8740    -5.3010    14.9270 o          1 FH1      -0.542100
     49 S45         -8.8180    -7.5160    13.1710 s6         1 FH1       1.279800
     50 H131       -13.9840    -9.7520    15.2930 h1         1 FH1       0.073700
     51 H211       -20.2060   -12.6940    15.2900 h1         1 FH1       0.074700
     52 H221       -21.7170   -11.3540    17.0580 hc         1 FH1       0.057200
     53 H222       -21.4640   -13.0850    17.3060 hc         1 FH1       0.057200
     54 H261       -20.1560    -8.1310    12.7440 hc         1 FH1       0.042367
     55 H262       -19.6880    -6.9350    11.5300 hc         1 FH1       0.042367
     56 H263       -19.2010    -8.6260    11.3380 hc         1 FH1       0.042367
     57 H021       -13.6490   -11.6630    11.8340 h1         1 FH1       0.089700
     58 H032       -12.2580   -10.7590    13.9570 hc         1 FH1       0.075700
     59 H031       -12.5590    -9.6590    12.6090 hc         1 FH1       0.075700
     60 H041       -15.1430    -9.7990    11.5590 h1         1 FH1       0.080700
     61 H042       -16.1560   -10.9250    12.4880 h1         1 FH1       0.080700
     62 H052       -14.3790    -3.5310    14.4250 ha         1 FH1       0.165500
     63 H051       -13.1310    -2.1820    14.2040 ha         1 FH1       0.165500
     64 H061       -11.4640    -3.5090    15.3920 ha         1 FH1       0.193000
     65 H071       -13.8080    -5.4990    15.7630 hc         1 FH1       0.098700
     66 H081       -12.5140    -6.3580    17.7010 hc         1 FH1       0.089700
     67 H082       -11.1140    -5.2490    17.2740 hc         1 FH1       0.089700
     68 H161       -17.6200    -9.6140    12.7950 h1         1 FH1       0.085700
     69 H231       -18.4980   -13.8190    16.4870 hc         1 FH1       0.057200
     70 H232       -17.7720   -12.2320    16.6230 hc         1 FH1       0.057200
     71 H253       -19.1140    -6.6210    14.5260 hc         1 FH1       0.042367
     72 H251       -17.4190    -6.1280    14.3850 hc         1 FH1       0.042367
     73 H252       -18.6320    -5.4900    13.2660 hc         1 FH1       0.042367
     74 H272       -16.0350    -6.8680    12.3540 hc         1 FH1       0.042367
     75 H271       -16.7610    -7.9180    11.1310 hc         1 FH1       0.042367
     76 H273       -17.2880    -6.2410    11.2820 hc         1 FH1       0.042367
     77 H313       -15.5600   -14.9070    16.1840 hc         1 FH1       0.061033
     78 H311       -15.4530   -13.1360    16.0620 hc         1 FH1       0.061033
     79 H312       -16.1690   -14.0490    14.7490 hc         1 FH1       0.061033
     80 H341       -11.5040   -17.1250    15.6210 ha         1 FH1       0.137000
     81 H351        -9.2480   -17.2700    14.5850 ha         1 FH1       0.137000
     82 H371       -10.0150   -13.6490    12.3920 ha         1 FH1       0.131000
     83 H412        -6.7270   -15.0190    11.7590 h1         1 FH1       0.046367
     84 H411        -8.3490   -14.6470    11.1190 h1         1 FH1       0.046367
     85 H413        -7.6830   -13.6930    12.4720 h1         1 FH1       0.046367
     86 H491        -9.9820   -10.9500    12.5460 hc         1 FH1       0.089700
     87 H492        -8.9430   -10.2930    13.8960 hc         1 FH1       0.089700
     88 H501        -8.1740   -10.3030    10.8800 hc         1 FH1       0.089700
     89 H502        -7.1650    -9.6550    12.2610 hc         1 FH1       0.089700
     90 H512       -19.8570   -10.8420    18.6240 hc         1 FH1       0.047450
     91 H511       -20.7500   -12.1140    19.4590 hc         1 FH1       0.047450
     92 H522       -19.2060   -13.8160    18.7200 hc         1 FH1       0.047450
     93 H521       -18.0940   -12.4780    18.9710 hc         1 FH1       0.047450
     94 H531       -11.2130    -8.1700    11.5770 hc         1 FH1       0.054700
     95 H532        -9.9310    -7.8900    10.3870 hc         1 FH1       0.054700
     96 H533       -10.5880    -9.5180    10.6220 hc         1 FH1       0.054700
     97 H101       -12.5210    -8.3750    16.1500 hn         1 FH1       0.322500
     98 H171       -18.7560    -8.6740    15.3430 hn         1 FH1       0.336500
     99 H441       -10.6890    -8.2730    14.2600 hn         1 FH1       0.329500
    100 C18        -18.8600   -10.5940    14.7180 c          1 FH1       0.632100
    101 C06        -12.4660    -3.8900    15.2420 c2         1 FH1      -0.200200
    102 O46         -7.7090    -7.8480    14.0330 o          1 FH1      -0.522500
    103 O47         -8.7170    -6.3300    12.3600 o          1 FH1      -0.522500
@<TRIPOS>BOND
     1     1     8 1   
     2     1    14 1   
     3     1    37 1   
     4     1    50 1   
     5     2     3 1   
     6     2    16 1   
     7     2    45 1   
     8     2    51 1   
     9     3    33 1   
    10     3    52 1   
    11     3    53 1   
    12     4     5 1   
    13     4    15 1   
    14     4    17 1   
    15     4    18 1   
    16     5    54 1   
    17     5    55 1   
    18     5    56 1   
    19     6    15 1   
    20     6    37 1   
    21     6    43 2   
    22     7     8 1   
    23     7     9 1   
    24     7    46 1   
    25     7    57 1   
    26     8    58 1   
    27     8    59 1   
    28     9    37 1   
    29     9    60 1   
    30     9    61 1   
    31    10    62 1   
    32    10    63 1   
    33    10   101 2   
    34    11    12 1   
    35    11    13 1   
    36    11    65 1   
    37    11   101 1   
    38    12    13 1   
    39    12    66 1   
    40    12    67 1   
    41    13    29 1   
    42    13    36 1   
    43    14    36 1   
    44    14    42 2   
    45    15    38 1   
    46    15    68 1   
    47    16    34 1   
    48    16    69 1   
    49    16    70 1   
    50    17    71 1   
    51    17    72 1   
    52    17    73 1   
    53    18    74 1   
    54    18    75 1   
    55    18    76 1   
    56    19    20 ar  
    57    19    40 ar  
    58    19    46 1   
    59    20    21 1   
    60    20    39 ar  
    61    21    77 1   
    62    21    78 1   
    63    21    79 1   
    64    22    23 ar  
    65    22    27 ar  
    66    22    39 ar  
    67    23    24 ar  
    68    23    80 1   
    69    24    25 ar  
    70    24    81 1   
    71    25    26 ar  
    72    25    47 1   
    73    26    27 ar  
    74    26    82 1   
    75    27    40 ar  
    76    28    47 1   
    77    28    83 1   
    78    28    84 1   
    79    28    85 1   
    80    29    41 1   
    81    29    48 2   
    82    30    31 1   
    83    30    32 1   
    84    30    35 1   
    85    30    49 1   
    86    31    32 1   
    87    31    86 1   
    88    31    87 1   
    89    32    88 1   
    90    32    89 1   
    91    33    34 1   
    92    33    90 1   
    93    33    91 1   
    94    34    92 1   
    95    34    93 1   
    96    35    94 1   
    97    35    95 1   
    98    35    96 1   
    99    36    97 1   
   100    38    98 1   
   101    38   100 1   
   102    41    49 1   
   103    41    99 1   
   104    44   100 2   
   105    45   100 1   
   106    49   102 2   
   107    49   103 2   
   108    64   101 1   
@<TRIPOS>SUBSTRUCTURE
     1 FH1         1 TEMP              0 ****  ****    0 ROOT
