@<TRIPOS>MOLECULE
FH2
   23    23     1     0     0
SMALL
No Charge or Current Charge


@<TRIPOS>ATOM
      1 OAF          1.1730    -2.2700    -0.0060 oh         1 FH2      -0.639000
      2 CAC          0.4190    -1.1360     0.4650 c6         1 FH2       0.216500
      3 CAD         -1.0770    -1.3240     0.0480 c6         1 FH2       0.147300
      4 OAG         -1.1480    -1.8000    -1.3110 oh         1 FH2      -0.630000
      5 CAE         -1.8650     0.0030     0.2100 c6         1 FH2       0.166300
      6 FAH         -1.8260     0.3770     1.5770 f          1 FH2      -0.252000
      7 CAA         -1.2420     1.1340    -0.6670 c6         1 FH2       0.182500
      8 CAB          0.2740     1.1870    -0.5300 c2         1 FH2      -0.208200
      9 CAI          1.0340     0.1830    -0.0380 c2         1 FH2      -0.129400
     10 CAJ          2.5470     0.3070     0.1100 c3         1 FH2       0.204800
     11 OAK          2.8900     1.5590     0.7160 oh         1 FH2      -0.658000
     12 O1          -1.7950     2.4200    -0.3470 oh         1 FH2      -0.644000
     13 H1           1.9350    -2.3800     0.6020 ho         1 FH2       0.438000
     14 H2           0.4470    -1.1100     1.5650 h1         1 FH2       0.053700
     15 H3          -1.5240    -2.0720     0.7180 h1         1 FH2       0.052700
     16 H4          -0.2950    -2.2810    -1.4320 ho         1 FH2       0.440000
     17 H5          -2.9190    -0.1470    -0.0580 h1         1 FH2       0.061700
     18 H6          -1.4700     0.8940    -1.7160 h1         1 FH2       0.052700
     19 H7           0.7480     2.1120    -0.8610 ha         1 FH2       0.198000
     20 H8           2.9430    -0.5130     0.7230 h1         1 FH2       0.027200
     21 H9           3.0110     0.2280    -0.8830 h1         1 FH2       0.027200
     22 H10          3.8710     1.5870     0.7720 ho         1 FH2       0.447000
     23 H11         -1.4810     3.0440    -1.0370 ho         1 FH2       0.447000
@<TRIPOS>BOND
     1     1     2 1   
     2     1    13 1   
     3     2     3 1   
     4     2     9 1   
     5     2    14 1   
     6     3     4 1   
     7     3     5 1   
     8     3    15 1   
     9     4    16 1   
    10     5     6 1   
    11     5     7 1   
    12     5    17 1   
    13     7     8 1   
    14     7    12 1   
    15     7    18 1   
    16     8     9 2   
    17     8    19 1   
    18     9    10 1   
    19    10    11 1   
    20    10    20 1   
    21    10    21 1   
    22    11    22 1   
    23    12    23 1   
@<TRIPOS>SUBSTRUCTURE
     1 FH2         1 TEMP              0 ****  ****    0 ROOT
