@<TRIPOS>MOLECULE
FH2
   23    23     1     0     0
SMALL
bcc


@<TRIPOS>ATOM
      1 OAF          1.3760    -2.1720     0.1290 oh         1 FH2      -0.576800
      2 CAC          0.5260    -1.1050     0.5000 c6         1 FH2       0.193300
      3 CAD         -0.8560    -1.3750    -0.0850 c6         1 FH2       0.124100
      4 OAG         -0.7130    -1.6470    -1.4560 oh         1 FH2      -0.567800
      5 CAE         -1.7500    -0.1570     0.1130 c6         1 FH2       0.147600
      6 FAH         -1.8050     0.1200     1.4790 f          1 FH2      -0.233300
      7 CAA         -1.1930     1.0460    -0.6220 c6         1 FH2       0.159300
      8 CAB          0.2830     1.2040    -0.3920 c2         1 FH2      -0.158200
      9 CAI          1.0730     0.2370     0.0670 c2         1 FH2      -0.129400
     10 CAJ          2.5470     0.4150     0.2810 c3         1 FH2       0.181600
     11 OAK          2.9280     1.7490     0.0710 oh         1 FH2      -0.595800
     12 O1          -1.9230     2.1800    -0.2070 oh         1 FH2      -0.581800
     13 H1           1.9600    -2.3680     0.8660 ho         1 FH2       0.399000
     14 H2           0.4200    -1.0800     1.5920 h1         1 FH2       0.053700
     15 H3          -1.2930    -2.2330     0.4450 h1         1 FH2       0.052700
     16 H4          -1.5490    -1.9880    -1.7900 ho         1 FH2       0.401000
     17 H5          -2.7750    -0.3650    -0.2110 h1         1 FH2       0.061700
     18 H6          -1.3560     0.8650    -1.6930 h1         1 FH2       0.052700
     19 H7           0.7030     2.1660    -0.6660 ha         1 FH2       0.148000
     20 H8           2.7880     0.0840     1.3040 h1         1 FH2       0.027200
     21 H9           3.0860    -0.2660    -0.3910 h1         1 FH2       0.027200
     22 H10          3.8880     1.7910     0.0930 ho         1 FH2       0.408000
     23 H11         -1.7150     2.9030    -0.8070 ho         1 FH2       0.408000
@<TRIPOS>BOND
     1     1     2 1   
     2     1    13 1   
     3     2     3 1   
     4     2     9 1   
     5     2    14 1   
     6     3     4 1   
     7     3     5 1   
     8     3    15 1   
     9     4    16 1   
    10     5     6 1   
    11     5     7 1   
    12     5    17 1   
    13     7     8 1   
    14     7    12 1   
    15     7    18 1   
    16     8     9 2   
    17     8    19 1   
    18     9    10 1   
    19    10    11 1   
    20    10    20 1   
    21    10    21 1   
    22    11    22 1   
    23    12    23 1   
@<TRIPOS>SUBSTRUCTURE
     1 FH2         1 TEMP              0 ****  ****    0 ROOT
