@<TRIPOS>MOLECULE
FH3
   49    52     1     0     0
SMALL
bcc


@<TRIPOS>ATOM
      1 CL          -2.4410     3.4380     0.0120 cl         1 FH3      -0.095400
      2 C02         -0.7940     2.8950    -0.0250 ca         1 FH3      -0.171900
      3 C03          0.1690     3.8390    -0.3740 ca         1 FH3       0.452200
      4 N04          1.4530     3.5620    -0.5550 nb         1 FH3      -0.686000
      5 C05          1.7470     2.2870    -0.3840 ca         1 FH3       0.427800
      6 N06          2.9720     1.6970    -0.4930 na         1 FH3      -0.368000
      7 C07          2.8120     0.3720    -0.2020 cc         1 FH3       0.524400
      8 C08          3.9000    -0.5720    -0.2300 cc         1 FH3      -0.315200
      9 C09          5.2240    -0.3360    -0.5500 cd         1 FH3      -0.116300
     10 N10          5.8590    -1.5060    -0.4480 na         1 FH3       0.121400
     11 C11          7.2570    -1.7700    -0.6860 c3         1 FH3       0.043600
     12 N12          5.0430    -2.4960    -0.0830 nd         1 FH3      -0.530800
     13 C13          3.8480    -1.9590     0.0570 cc         1 FH3       0.378600
     14 C14          2.6750    -2.7810     0.4630 c3         1 FH3      -0.118400
     15 N15          1.5730     0.0750     0.0940 nd         1 FH3      -0.582100
     16 C16          0.8770     1.2490    -0.0140 ca         1 FH3      -0.080900
     17 C17         -0.4820     1.5400     0.1970 ca         1 FH3       0.269600
     18 N18         -1.4270     0.6100     0.5460 nh         1 FH3      -0.650000
     19 C19         -1.2060    -0.8160     0.3590 c5         1 FH3       0.205800
     20 C20         -2.5800    -1.4140     0.6720 c5         1 FH3      -0.090700
     21 C21         -3.4100    -1.5730    -0.6000 c3         1 FH3       0.101000
     22 N22         -4.7110    -2.1410    -0.3330 ns         1 FH3      -0.577900
     23 C23         -5.8870    -1.5400    -0.5830 c          1 FH3       0.668100
     24 C24         -7.1070    -2.3510    -0.2200 c3         1 FH3      -0.181100
     25 O25         -5.9840    -0.4250    -1.0810 o          1 FH3      -0.603100
     26 C26         -3.2120    -0.4150     1.6650 c5         1 FH3      -0.081400
     27 C27         -2.2110     0.7340     1.7740 c5         1 FH3       0.202800
     28 H03         -0.1370     4.8670    -0.5260 h4         1 FH3       0.033100
     29 H06          3.8260     2.1670    -0.7490 hn         1 FH3       0.314700
     30 H09          5.7430     0.5650    -0.8370 h4         1 FH3       0.169000
     31 H111         7.7280    -2.1540     0.2160 h1         1 FH3       0.059367
     32 H112         7.3720    -2.4970    -1.4880 h1         1 FH3       0.059367
     33 H113         7.7460    -0.8450    -0.9740 h1         1 FH3       0.059367
     34 H141         1.8800    -2.7300    -0.2800 hc         1 FH3       0.054700
     35 H142         2.9700    -3.8210     0.5910 hc         1 FH3       0.054700
     36 H143         2.2460    -2.4230     1.3990 hc         1 FH3       0.054700
     37 H191        -0.8660    -1.0250    -0.6560 h1         1 FH3       0.059700
     38 H192        -0.4510    -1.2140     1.0430 h1         1 FH3       0.059700
     39 H271        -1.5580     0.6060     2.6470 h1         1 FH3       0.050200
     40 H272        -2.6950     1.7020     1.8640 h1         1 FH3       0.050200
     41 H20         -2.4530    -2.3980     1.1300 hc         1 FH3       0.049700
     42 H211        -3.5460    -0.6050    -1.0790 h1         1 FH3       0.065200
     43 H212        -2.8780    -2.2170    -1.3070 h1         1 FH3       0.065200
     44 H261        -4.1680    -0.0480     1.2910 hc         1 FH3       0.056700
     45 H262        -3.4020    -0.8630     2.6400 hc         1 FH3       0.056700
     46 H22         -4.7280    -3.0620     0.0720 hn         1 FH3       0.304500
     47 H241        -6.8790    -3.2610     0.3320 hc         1 FH3       0.058700
     48 H242        -7.7850    -1.7420     0.3780 hc         1 FH3       0.058700
     49 H243        -7.6390    -2.6270    -1.1320 hc         1 FH3       0.058700
@<TRIPOS>BOND
     1     1     2 1   
     2     2     3 ar  
     3     2    17 ar  
     4     3     4 ar  
     5     3    28 1   
     6     4     5 ar  
     7     5     6 1   
     8     5    16 ar  
     9     6     7 1   
    10     6    29 1   
    11     7     8 1   
    12     7    15 2   
    13     8     9 2   
    14     8    13 1   
    15     9    10 1   
    16     9    30 1   
    17    10    11 1   
    18    10    12 1   
    19    11    31 1   
    20    11    32 1   
    21    11    33 1   
    22    12    13 2   
    23    13    14 1   
    24    14    34 1   
    25    14    35 1   
    26    14    36 1   
    27    15    16 1   
    28    16    17 ar  
    29    17    18 1   
    30    18    19 1   
    31    18    27 1   
    32    19    20 1   
    33    19    37 1   
    34    19    38 1   
    35    20    21 1   
    36    20    26 1   
    37    20    41 1   
    38    21    22 1   
    39    21    42 1   
    40    21    43 1   
    41    22    23 1   
    42    22    46 1   
    43    23    24 1   
    44    23    25 2   
    45    24    47 1   
    46    24    48 1   
    47    24    49 1   
    48    26    27 1   
    49    26    44 1   
    50    26    45 1   
    51    27    39 1   
    52    27    40 1   
@<TRIPOS>SUBSTRUCTURE
     1 FH3         1 TEMP              0 ****  ****    0 ROOT
