@<TRIPOS>MOLECULE
FH3
   49    52     1     0     0
SMALL
No Charge or Current Charge


@<TRIPOS>ATOM
      1 Cl          -1.9130     4.5620    -0.1650 cl         1 FH3      -0.187000
      2 C02         -0.3820     3.6680    -0.1340 ca         1 FH3      -0.015000
      3 C03          0.8350     4.3810    -0.1570 ca         1 FH3       0.386900
      4 N04          2.0560     3.7870    -0.1460 nb         1 FH3      -0.686000
      5 C05          2.0650     2.4480    -0.1120 ca         1 FH3       0.362500
      6 N06          3.1090     1.5930    -0.0830 na         1 FH3      -0.418300
      7 C07          2.6210     0.2990    -0.0380 cc         1 FH3       0.524400
      8 C08          3.5240    -0.8170     0.0010 cc         1 FH3      -0.249900
      9 C09          4.8870    -0.7280    -0.0010 cd         1 FH3      -0.149000
     10 N10          5.3180    -2.0570     0.0440 na         1 FH3       0.142800
     11 C11          6.7120    -2.5210     0.0610 c3         1 FH3       0.072900
     12 N12          4.2670    -2.9630     0.0740 nd         1 FH3      -0.530800
     13 C13          3.2020    -2.1870     0.0470 cc         1 FH3       0.313300
     14 C14          1.8040    -2.7440     0.0630 c3         1 FH3      -0.118400
     15 N15          1.2810     0.2900    -0.0380 nd         1 FH3      -0.582100
     16 C16          0.9430     1.6530    -0.0890 ca         1 FH3      -0.015600
     17 C17         -0.3390     2.2550    -0.1040 ca         1 FH3       0.408000
     18 N18         -1.5310     1.4810    -0.0720 nh         1 FH3      -0.788400
     19 C19         -1.8200     0.4100    -1.0620 c5         1 FH3       0.205800
     20 C20         -2.5390    -0.6450    -0.1800 c5         1 FH3      -0.090700
     21 C21         -3.3330    -1.6990    -0.9840 c3         1 FH3       0.101000
     22 N22         -4.0250    -2.6830    -0.1440 ns         1 FH3      -0.510900
     23 C23         -5.3340    -2.5870     0.2720 c          1 FH3       0.601100
     24 C24         -5.7990    -3.7220     1.1740 c3         1 FH3      -0.181100
     25 O25         -6.0680    -1.6680    -0.0590 o          1 FH3      -0.603100
     26 C26         -3.3870     0.2820     0.7330 c5         1 FH3      -0.081400
     27 C27         -2.3280     1.3260     1.1700 c5         1 FH3       0.202800
     28 H03          0.8320     5.4700    -0.1860 h4         1 FH3       0.033100
     29 H06          4.0800     1.8560    -0.0910 hn         1 FH3       0.365000
     30 H09          5.5660     0.1170    -0.0290 h4         1 FH3       0.151000
     31 H111         6.8950    -3.0970     0.9760 h1         1 FH3       0.059367
     32 H112         6.8970    -3.1560    -0.8130 h1         1 FH3       0.059367
     33 H113         7.3910    -1.6600     0.0330 h1         1 FH3       0.059367
     34 H141         1.2550    -2.4450    -0.8360 hc         1 FH3       0.054700
     35 H142         1.8140    -3.8390     0.1000 hc         1 FH3       0.054700
     36 H143         1.2530    -2.3860     0.9400 hc         1 FH3       0.054700
     37 H191        -2.4750     0.7850    -1.8610 h1         1 FH3       0.059700
     38 H192        -0.9170    -0.0040    -1.5300 h1         1 FH3       0.059700
     39 H271        -1.7060     0.9390     1.9900 h1         1 FH3       0.050200
     40 H272        -2.7940     2.2650     1.4970 h1         1 FH3       0.050200
     41 H20         -1.8020    -1.1960     0.4180 hc         1 FH3       0.049700
     42 H211        -4.0650    -1.1910    -1.6260 h1         1 FH3       0.065200
     43 H212        -2.6390    -2.2380    -1.6420 h1         1 FH3       0.065200
     44 H261        -4.2070     0.7560     0.1800 hc         1 FH3       0.056700
     45 H262        -3.8250    -0.2420     1.5900 hc         1 FH3       0.056700
     46 H22         -3.5030    -3.4880     0.1850 hn         1 FH3       0.304500
     47 H241        -5.1280    -3.7880     2.0380 hc         1 FH3       0.058700
     48 H242        -6.8460    -3.6150     1.4820 hc         1 FH3       0.058700
     49 H243        -5.6220    -4.6770     0.6680 hc         1 FH3       0.058700
@<TRIPOS>BOND
     1     1     2 1   
     2     2     3 ar  
     3     2    17 ar  
     4     3     4 ar  
     5     3    28 1   
     6     4     5 ar  
     7     5     6 1   
     8     5    16 ar  
     9     6     7 1   
    10     6    29 1   
    11     7     8 1   
    12     7    15 2   
    13     8     9 2   
    14     8    13 1   
    15     9    10 1   
    16     9    30 1   
    17    10    11 1   
    18    10    12 1   
    19    11    31 1   
    20    11    32 1   
    21    11    33 1   
    22    12    13 2   
    23    13    14 1   
    24    14    34 1   
    25    14    35 1   
    26    14    36 1   
    27    15    16 1   
    28    16    17 ar  
    29    17    18 1   
    30    18    19 1   
    31    18    27 1   
    32    19    20 1   
    33    19    37 1   
    34    19    38 1   
    35    20    21 1   
    36    20    26 1   
    37    20    41 1   
    38    21    22 1   
    39    21    42 1   
    40    21    43 1   
    41    22    23 1   
    42    22    46 1   
    43    23    24 1   
    44    23    25 2   
    45    24    47 1   
    46    24    48 1   
    47    24    49 1   
    48    26    27 1   
    49    26    44 1   
    50    26    45 1   
    51    27    39 1   
    52    27    40 1   
@<TRIPOS>SUBSTRUCTURE
     1 FH3         1 TEMP              0 ****  ****    0 ROOT
