@<TRIPOS>MOLECULE
FH4
  109   114     1     0     0
SMALL
abcg2


@<TRIPOS>ATOM
      1 C13        -13.9300    -9.4590    14.0320 c5         1 FH4       0.029700
      2 C21        -19.4950   -11.9520    16.7000 c5         1 FH4       0.188300
      3 C22        -20.4440   -11.7760    17.8750 c5         1 FH4      -0.093900
      4 C24        -18.0980    -7.7080    12.6080 c3         1 FH4      -0.041000
      5 C26        -17.0400    -7.4350    11.5300 c3         1 FH4      -0.089767
      6 C01        -16.2820    -8.8770    14.0110 c          1 FH4       0.584100
      7 C02        -14.0520   -11.3370    12.5380 c5         1 FH4       0.163300
      8 C03        -13.0630   -10.3260    13.1070 c5         1 FH4      -0.106400
      9 C04        -15.3190   -10.5240    12.3410 c5         1 FH4       0.104000
     10 C05        -14.0490    -3.3300    13.7760 c2         1 FH4      -0.291000
     11 C07        -13.5450    -5.1790    15.3190 cx         1 FH4      -0.027500
     12 C08        -13.0560    -5.5580    16.6790 cx         1 FH4      -0.091400
     13 C09        -12.4740    -6.2780    15.4880 cx         1 FH4      -0.073600
     14 C11        -13.4490    -8.0120    14.0660 c          1 FH4       0.596100
     15 C16        -17.6830    -8.9840    13.3980 c3         1 FH4       0.054700
     16 C23        -18.1700   -12.3320    17.3570 c5         1 FH4      -0.093900
     17 C25        -19.4450    -7.9930    11.9300 c3         1 FH4      -0.089767
     18 C27        -18.2310    -6.4730    13.5080 c3         1 FH4      -0.089767
     19 C29        -13.5240   -13.3900    13.6610 ca         1 FH4       0.551300
     20 C30        -13.8740   -14.3410    14.6880 ca         1 FH4       0.321300
     21 C31        -15.1220   -14.1520    15.5180 c3         1 FH4      -0.104000
     22 C33        -12.0230   -15.5630    14.0690 ca         1 FH4       0.168000
     23 C34        -11.2000   -16.6990    14.2280 ca         1 FH4      -0.029000
     24 C35        -10.1040   -16.8800    13.4280 ca         1 FH4      -0.137000
     25 C36         -9.7790   -15.9260    12.4310 ca         1 FH4       0.162100
     26 C37        -10.5590   -14.8000    12.2570 ca         1 FH4      -0.198000
     27 C38        -11.6920   -14.6110    13.0730 ca         1 FH4       0.302000
     28 C41         -8.2950   -15.3100    10.6640 c3         1 FH4       0.146900
     29 C42        -11.0480    -5.9750    15.1380 c          1 FH4       0.676100
     30 C48         -8.7620    -8.5200    13.1420 cx         1 FH4      -0.415000
     31 C49         -7.5050    -9.3450    13.2550 cx         1 FH4      -0.075400
     32 C50         -8.7590    -9.8100    13.9280 cx         1 FH4      -0.075400
     33 C51        -19.5920   -11.0850    18.9550 c5         1 FH4      -0.076400
     34 C52        -18.1340   -11.5470    18.6890 c5         1 FH4      -0.076400
     35 C53        -15.0210   -14.8140    16.8910 c3         1 FH4      -0.081600
     36 C54         -9.5000    -8.4180    11.8270 c3         1 FH4      -0.040100
     37 C55        -16.3410   -14.6730    14.7380 c3         1 FH4      -0.081600
     38 N10        -12.9180    -7.6160    15.2500 ns         1 FH4      -0.477900
     39 N14        -15.2680    -9.5500    13.4390 n          1 FH4      -0.392800
     40 N17        -18.6170    -9.3050    14.4640 ns         1 FH4      -0.464900
     41 N32        -13.1180   -15.3910    14.8610 nb         1 FH4      -0.610000
     42 N39        -12.4770   -13.5080    12.8990 nb         1 FH4      -0.752000
     43 N44        -10.3950    -7.0240    14.5320 ns         1 FH4      -0.574300
     44 O12        -13.4860    -7.2980    13.0750 o          1 FH4      -0.571100
     45 O15        -16.0930    -8.1890    15.0180 o          1 FH4      -0.628100
     46 O19        -18.4170   -11.5710    14.2290 o          1 FH4      -0.551000
     47 O20        -19.3840   -10.6450    16.0630 os         1 FH4      -0.461100
     48 O28        -14.3630   -12.3480    13.5210 os         1 FH4      -0.458300
     49 O40         -8.6780   -16.2180    11.6970 os         1 FH4      -0.343100
     50 O43        -10.5130    -4.9050    15.3640 o          1 FH4      -0.546100
     51 S45         -8.7720    -7.0330    14.0980 s6         1 FH4       1.279800
     52 H131       -13.9550    -9.8670    15.0440 h1         1 FH4       0.071700
     53 H211       -19.8350   -12.6670    15.9540 h1         1 FH4       0.075700
     54 H222       -21.3420   -11.2200    17.6020 hc         1 FH4       0.057450
     55 H221       -20.7520   -12.7710    18.2050 hc         1 FH4       0.057450
     56 H262       -16.0680    -7.2000    11.9660 hc         1 FH4       0.042589
     57 H261       -16.9220    -8.2960    10.8680 hc         1 FH4       0.042589
     58 H263       -17.3480    -6.5840    10.9200 hc         1 FH4       0.042589
     59 H021       -13.7090   -11.8130    11.6240 h1         1 FH4       0.093700
     60 H032       -12.2320   -10.7900    13.6310 hc         1 FH4       0.077200
     61 H031       -12.6710    -9.7200    12.2900 hc         1 FH4       0.077200
     62 H041       -15.2900   -10.0260    11.3710 h1         1 FH4       0.079200
     63 H042       -16.2060   -11.1490    12.4000 h1         1 FH4       0.079200
     64 H052       -14.9350    -3.8410    13.4150 ha         1 FH4       0.164500
     65 H051       -13.8300    -2.3590    13.3500 ha         1 FH4       0.164500
     66 H061       -12.3810    -3.3460    15.0470 ha         1 FH4       0.194000
     67 H071       -14.4910    -5.6150    15.0270 hc         1 FH4       0.098700
     68 H082       -13.7080    -6.1390    17.3170 hc         1 FH4       0.091200
     69 H081       -12.3880    -4.8710    17.1800 hc         1 FH4       0.091200
     70 H161       -17.7190    -9.8130    12.6990 h1         1 FH4       0.086700
     71 H231       -18.1830   -13.4080    17.5410 hc         1 FH4       0.057450
     72 H232       -17.3190   -12.1260    16.7100 hc         1 FH4       0.057450
     73 H251       -20.2240    -8.1970    12.6660 hc         1 FH4       0.042589
     74 H253       -19.7520    -7.1280    11.3390 hc         1 FH4       0.042589
     75 H252       -19.3700    -8.8540    11.2610 hc         1 FH4       0.042589
     76 H271       -18.9950    -6.6090    14.2760 hc         1 FH4       0.042589
     77 H272       -17.2900    -6.2320    13.9980 hc         1 FH4       0.042589
     78 H273       -18.5320    -5.6190    12.8980 hc         1 FH4       0.042589
     79 H311       -15.2550   -13.0770    15.6610 hc         1 FH4       0.063700
     80 H341       -11.4580   -17.4220    14.9910 ha         1 FH4       0.136000
     81 H351        -9.4680   -17.7480    13.5360 ha         1 FH4       0.136000
     82 H371       -10.3380   -14.0550    11.5070 ha         1 FH4       0.133000
     83 H412        -7.4030   -15.7340    10.2100 h1         1 FH4       0.046033
     84 H411        -9.0840   -15.2200     9.9140 h1         1 FH4       0.046033
     85 H413        -8.0680   -14.3240    11.0750 h1         1 FH4       0.046033
     86 H491        -7.1920    -9.8260    12.3380 hc         1 FH4       0.089200
     87 H492        -6.7070    -8.9800    13.8850 hc         1 FH4       0.089200
     88 H502        -9.3270   -10.6180    13.4860 hc         1 FH4       0.089200
     89 H501        -8.7950    -9.7540    15.0070 hc         1 FH4       0.089200
     90 H512       -19.6680   -10.0020    18.8510 hc         1 FH4       0.045950
     91 H511       -19.9310   -11.3370    19.9600 hc         1 FH4       0.045950
     92 H521       -17.7560   -12.1740    19.4970 hc         1 FH4       0.045950
     93 H522       -17.4670   -10.6880    18.6130 hc         1 FH4       0.045950
     94 H533       -15.9190   -14.5940    17.4700 hc         1 FH4       0.040867
     95 H532       -14.9280   -15.8960    16.8000 hc         1 FH4       0.040867
     96 H531       -14.1560   -14.4460    17.4450 hc         1 FH4       0.040867
     97 H541       -10.5520    -8.1730    11.9760 hc         1 FH4       0.053367
     98 H543        -9.0500    -7.6640    11.1810 hc         1 FH4       0.053367
     99 H542        -9.4460    -9.3840    11.3230 hc         1 FH4       0.053367
    100 H553       -17.2550   -14.4890    15.3040 hc         1 FH4       0.040867
    101 H552       -16.4340   -14.1800    13.7700 hc         1 FH4       0.040867
    102 H551       -16.2480   -15.7490    14.5720 hc         1 FH4       0.040867
    103 H101       -13.0130    -8.2310    16.0450 hn         1 FH4       0.323500
    104 H171       -18.7520    -8.6060    15.1790 hn         1 FH4       0.330500
    105 H441       -10.8420    -7.9320    14.5510 hn         1 FH4       0.333500
    106 C18        -18.7670   -10.5930    14.8690 c          1 FH4       0.627100
    107 C06        -13.2640    -3.8710    14.7050 c2         1 FH4      -0.199200
    108 O46         -7.9650    -7.1840    15.2850 o          1 FH4      -0.522500
    109 O47         -8.5230    -5.8880    13.2580 o          1 FH4      -0.522500
@<TRIPOS>BOND
     1     1     8 1   
     2     1    14 1   
     3     1    39 1   
     4     1    52 1   
     5     2     3 1   
     6     2    16 1   
     7     2    47 1   
     8     2    53 1   
     9     3    33 1   
    10     3    54 1   
    11     3    55 1   
    12     4     5 1   
    13     4    15 1   
    14     4    17 1   
    15     4    18 1   
    16     5    56 1   
    17     5    57 1   
    18     5    58 1   
    19     6    15 1   
    20     6    39 1   
    21     6    45 2   
    22     7     8 1   
    23     7     9 1   
    24     7    48 1   
    25     7    59 1   
    26     8    60 1   
    27     8    61 1   
    28     9    39 1   
    29     9    62 1   
    30     9    63 1   
    31    10    64 1   
    32    10    65 1   
    33    10   107 2   
    34    11    12 1   
    35    11    13 1   
    36    11    67 1   
    37    11   107 1   
    38    12    13 1   
    39    12    68 1   
    40    12    69 1   
    41    13    29 1   
    42    13    38 1   
    43    14    38 1   
    44    14    44 2   
    45    15    40 1   
    46    15    70 1   
    47    16    34 1   
    48    16    71 1   
    49    16    72 1   
    50    17    73 1   
    51    17    74 1   
    52    17    75 1   
    53    18    76 1   
    54    18    77 1   
    55    18    78 1   
    56    19    20 ar  
    57    19    42 ar  
    58    19    48 1   
    59    20    21 1   
    60    20    41 ar  
    61    21    35 1   
    62    21    37 1   
    63    21    79 1   
    64    22    23 ar  
    65    22    27 ar  
    66    22    41 ar  
    67    23    24 ar  
    68    23    80 1   
    69    24    25 ar  
    70    24    81 1   
    71    25    26 ar  
    72    25    49 1   
    73    26    27 ar  
    74    26    82 1   
    75    27    42 ar  
    76    28    49 1   
    77    28    83 1   
    78    28    84 1   
    79    28    85 1   
    80    29    43 1   
    81    29    50 2   
    82    30    31 1   
    83    30    32 1   
    84    30    36 1   
    85    30    51 1   
    86    31    32 1   
    87    31    86 1   
    88    31    87 1   
    89    32    88 1   
    90    32    89 1   
    91    33    34 1   
    92    33    90 1   
    93    33    91 1   
    94    34    92 1   
    95    34    93 1   
    96    35    94 1   
    97    35    95 1   
    98    35    96 1   
    99    36    97 1   
   100    36    98 1   
   101    36    99 1   
   102    37   100 1   
   103    37   101 1   
   104    37   102 1   
   105    38   103 1   
   106    40   104 1   
   107    40   106 1   
   108    43    51 1   
   109    43   105 1   
   110    46   106 2   
   111    47   106 1   
   112    51   108 2   
   113    51   109 2   
   114    66   107 1   
@<TRIPOS>SUBSTRUCTURE
     1 FH4         1 TEMP              0 ****  ****    0 ROOT
