@<TRIPOS>MOLECULE
FH4
  109   114     1     0     0
SMALL
No Charge or Current Charge


@<TRIPOS>ATOM
      1 C13        -13.7550   -10.0870    14.6180 c5         1 FH4       0.029700
      2 C21        -21.9440   -10.7730    15.0550 c5         1 FH4       0.188300
      3 C22        -22.8870   -10.2970    16.1880 c5         1 FH4      -0.093900
      4 C24        -17.4760    -8.1420    12.6150 c3         1 FH4      -0.041000
      5 C26        -16.2680    -8.1580    11.6380 c3         1 FH4      -0.089767
      6 C01        -16.2350    -9.5870    14.4430 c          1 FH4       0.584100
      7 C02        -13.7360   -11.9610    13.0710 c5         1 FH4       0.163300
      8 C03        -12.8220   -10.8220    13.6050 c5         1 FH4      -0.106400
      9 C04        -15.0860   -11.2180    12.8620 c5         1 FH4       0.104000
     10 C05        -12.3730    -4.3210    16.3680 c2         1 FH4      -0.291000
     11 C07        -11.7870    -6.6510    17.0720 cx         1 FH4      -0.027500
     12 C08        -10.6250    -7.5700    17.3530 cx         1 FH4      -0.091400
     13 C09        -11.2500    -7.5470    15.9710 cx         1 FH4      -0.073600
     14 C11        -13.2170    -8.6420    14.8600 c          1 FH4       0.596100
     15 C16        -17.4970    -9.4320    13.5270 c3         1 FH4       0.054700
     16 C23        -21.6920   -12.2390    15.5050 c5         1 FH4      -0.093900
     17 C25        -18.7690    -8.0710    11.7530 c3         1 FH4      -0.089767
     18 C27        -17.3910    -6.8530    13.4800 c3         1 FH4      -0.089767
     19 C29        -12.8150   -13.6940    14.3760 ca         1 FH4       0.551300
     20 C30        -12.4140   -13.9520    15.7320 ca         1 FH4       0.321300
     21 C31        -13.1660   -13.3670    16.9430 c3         1 FH4      -0.104000
     22 C33        -10.6440   -15.2350    14.9660 ca         1 FH4       0.168000
     23 C34         -9.5080   -16.0320    15.1960 ca         1 FH4      -0.029000
     24 C35         -8.7890   -16.5870    14.1250 ca         1 FH4      -0.137000
     25 C36         -9.1940   -16.3560    12.8040 ca         1 FH4       0.162100
     26 C37        -10.3300   -15.5610    12.5540 ca         1 FH4      -0.198000
     27 C38        -11.0590   -14.9970    13.6130 ca         1 FH4       0.302000
     28 C41         -8.7760   -16.7540    10.4020 c3         1 FH4       0.146900
     29 C42        -10.4450    -6.8940    14.8410 c          1 FH4       0.676100
     30 C48        -10.7180    -7.0470    11.3190 cx         1 FH4      -0.415000
     31 C49         -9.6680    -7.0840    10.2230 cx         1 FH4      -0.075400
     32 C50         -9.5500    -8.0130    11.4110 cx         1 FH4      -0.075400
     33 C51        -22.2370   -10.8720    17.4870 c5         1 FH4      -0.076400
     34 C52        -21.3610   -12.0790    17.0160 c5         1 FH4      -0.076400
     35 C53        -12.3040   -12.3330    17.7070 c3         1 FH4      -0.081600
     36 C54        -12.1260    -7.5830    11.0310 c3         1 FH4      -0.040100
     37 C55        -13.6980   -14.4710    17.8890 c3         1 FH4      -0.081600
     38 N10        -12.0640    -8.7000    15.6230 ns         1 FH4      -0.477900
     39 N14        -15.0600   -10.1570    13.9040 n          1 FH4      -0.392800
     40 N17        -18.7030    -9.4830    14.3870 ns         1 FH4      -0.464900
     41 N32        -11.3210   -14.7150    16.0220 nb         1 FH4      -0.610000
     42 N39        -12.1440   -14.2360    13.3230 nb         1 FH4      -0.752000
     43 N44        -11.2170    -6.2600    13.9270 ns         1 FH4      -0.574300
     44 O12        -13.6880    -7.5890    14.4490 o          1 FH4      -0.571100
     45 O15        -16.2400    -9.1900    15.6060 o          1 FH4      -0.628100
     46 O19        -20.0080   -10.8960    13.1350 o          1 FH4      -0.551000
     47 O20        -20.7140   -10.0040    15.1490 os         1 FH4      -0.461100
     48 O28        -13.9560   -12.9420    14.1320 os         1 FH4      -0.458300
     49 O40         -8.4490   -16.9280    11.7930 os         1 FH4      -0.343100
     50 O43         -9.2280    -6.9740    14.7660 o          1 FH4      -0.546100
     51 S45        -10.7670    -5.5720    12.4820 s6         1 FH4       1.279800
     52 H131       -13.8140   -10.6110    15.5800 h1         1 FH4       0.071700
     53 H211       -22.3950   -10.6750    14.0570 h1         1 FH4       0.075700
     54 H222       -22.9850    -9.2060    16.2180 hc         1 FH4       0.057450
     55 H221       -23.8950   -10.7020    16.0430 hc         1 FH4       0.057450
     56 H262       -15.3120    -8.1440    12.1730 hc         1 FH4       0.042589
     57 H261       -16.2960    -9.0440    10.9940 hc         1 FH4       0.042589
     58 H263       -16.2830    -7.2760    10.9860 hc         1 FH4       0.042589
     59 H021       -13.3830   -12.4350    12.1450 h1         1 FH4       0.093700
     60 H032       -11.8930   -11.1820    14.0610 hc         1 FH4       0.077200
     61 H031       -12.5280   -10.1610    12.7810 hc         1 FH4       0.077200
     62 H041       -15.1300   -10.7820    11.8560 h1         1 FH4       0.079200
     63 H042       -15.9380   -11.9010    12.9790 h1         1 FH4       0.079200
     64 H052       -13.2450    -4.6640    15.8080 ha         1 FH4       0.164500
     65 H051       -12.1830    -3.2470    16.3680 ha         1 FH4       0.164500
     66 H061       -10.7150    -4.8020    17.5880 ha         1 FH4       0.194000
     67 H071       -12.7420    -6.9360    17.5100 hc         1 FH4       0.098700
     68 H082       -10.8100    -8.4340    17.9860 hc         1 FH4       0.091200
     69 H081        -9.6410    -7.1240    17.4800 hc         1 FH4       0.091200
     70 H161       -17.5270   -10.3070    12.8680 h1         1 FH4       0.086700
     71 H231       -22.5920   -12.8500    15.3600 hc         1 FH4       0.057450
     72 H232       -20.8850   -12.7300    14.9510 hc         1 FH4       0.057450
     73 H251       -19.6630    -7.9440    12.3750 hc         1 FH4       0.042589
     74 H253       -18.7330    -7.2220    11.0590 hc         1 FH4       0.042589
     75 H252       -18.8930    -8.9850    11.1590 hc         1 FH4       0.042589
     76 H271       -18.2360    -6.7820    14.1760 hc         1 FH4       0.042589
     77 H272       -16.4650    -6.8250    14.0670 hc         1 FH4       0.042589
     78 H273       -17.4070    -5.9570    12.8480 hc         1 FH4       0.042589
     79 H311       -14.0510   -12.8260    16.5890 hc         1 FH4       0.063700
     80 H341        -9.1830   -16.2200    16.2170 ha         1 FH4       0.136000
     81 H351        -7.9130   -17.2000    14.3200 ha         1 FH4       0.136000
     82 H371       -10.6640   -15.3660    11.5400 ha         1 FH4       0.133000
     83 H412        -8.0570   -17.2910     9.7720 h1         1 FH4       0.046033
     84 H411        -9.7780   -17.1470    10.1850 h1         1 FH4       0.046033
     85 H413        -8.7450   -15.6930    10.1240 h1         1 FH4       0.046033
     86 H491        -9.9380    -7.5240     9.2650 hc         1 FH4       0.089200
     87 H492        -8.9560    -6.2630    10.1520 hc         1 FH4       0.089200
     88 H502        -9.7410    -9.0710    11.2450 hc         1 FH4       0.089200
     89 H501        -8.7560    -7.8090    12.1270 hc         1 FH4       0.089200
     90 H512       -21.6170   -10.1180    17.9860 hc         1 FH4       0.045950
     91 H511       -23.0010   -11.1790    18.2110 hc         1 FH4       0.045950
     92 H521       -21.5780   -12.9930    17.5810 hc         1 FH4       0.045950
     93 H522       -20.2960   -11.8640    17.1630 hc         1 FH4       0.045950
     94 H533       -12.8880   -11.8540    18.5020 hc         1 FH4       0.040867
     95 H532       -11.4300   -12.8110    18.1660 hc         1 FH4       0.040867
     96 H531       -11.9470   -11.5500    17.0280 hc         1 FH4       0.040867
     97 H541       -12.6480    -7.8590    11.9530 hc         1 FH4       0.053367
     98 H543       -12.7380    -6.8360    10.5110 hc         1 FH4       0.053367
     99 H542       -12.0930    -8.4770    10.3950 hc         1 FH4       0.053367
    100 H553       -14.3030   -14.0340    18.6920 hc         1 FH4       0.040867
    101 H552       -14.3290   -15.1800    17.3370 hc         1 FH4       0.040867
    102 H551       -12.8750   -15.0310    18.3490 hc         1 FH4       0.040867
    103 H101       -11.7560    -9.6230    15.9060 hn         1 FH4       0.323500
    104 H171       -18.6910    -8.9830    15.2670 hn         1 FH4       0.330500
    105 H441       -12.2180    -6.3150    14.0300 hn         1 FH4       0.333500
    106 C18        -19.8320   -10.2030    14.1250 c          1 FH4       0.627100
    107 C06        -11.5770    -5.1760    17.0280 c2         1 FH4      -0.199200
    108 O46         -9.4080    -5.0340    12.6050 o          1 FH4      -0.522500
    109 O47        -11.8690    -4.7050    12.0520 o          1 FH4      -0.522500
@<TRIPOS>BOND
     1     1     8 1   
     2     1    14 1   
     3     1    39 1   
     4     1    52 1   
     5     2     3 1   
     6     2    16 1   
     7     2    47 1   
     8     2    53 1   
     9     3    33 1   
    10     3    54 1   
    11     3    55 1   
    12     4     5 1   
    13     4    15 1   
    14     4    17 1   
    15     4    18 1   
    16     5    56 1   
    17     5    57 1   
    18     5    58 1   
    19     6    15 1   
    20     6    39 1   
    21     6    45 2   
    22     7     8 1   
    23     7     9 1   
    24     7    48 1   
    25     7    59 1   
    26     8    60 1   
    27     8    61 1   
    28     9    39 1   
    29     9    62 1   
    30     9    63 1   
    31    10    64 1   
    32    10    65 1   
    33    10   107 2   
    34    11    12 1   
    35    11    13 1   
    36    11    67 1   
    37    11   107 1   
    38    12    13 1   
    39    12    68 1   
    40    12    69 1   
    41    13    29 1   
    42    13    38 1   
    43    14    38 1   
    44    14    44 2   
    45    15    40 1   
    46    15    70 1   
    47    16    34 1   
    48    16    71 1   
    49    16    72 1   
    50    17    73 1   
    51    17    74 1   
    52    17    75 1   
    53    18    76 1   
    54    18    77 1   
    55    18    78 1   
    56    19    20 ar  
    57    19    42 ar  
    58    19    48 1   
    59    20    21 1   
    60    20    41 ar  
    61    21    35 1   
    62    21    37 1   
    63    21    79 1   
    64    22    23 ar  
    65    22    27 ar  
    66    22    41 ar  
    67    23    24 ar  
    68    23    80 1   
    69    24    25 ar  
    70    24    81 1   
    71    25    26 ar  
    72    25    49 1   
    73    26    27 ar  
    74    26    82 1   
    75    27    42 ar  
    76    28    49 1   
    77    28    83 1   
    78    28    84 1   
    79    28    85 1   
    80    29    43 1   
    81    29    50 2   
    82    30    31 1   
    83    30    32 1   
    84    30    36 1   
    85    30    51 1   
    86    31    32 1   
    87    31    86 1   
    88    31    87 1   
    89    32    88 1   
    90    32    89 1   
    91    33    34 1   
    92    33    90 1   
    93    33    91 1   
    94    34    92 1   
    95    34    93 1   
    96    35    94 1   
    97    35    95 1   
    98    35    96 1   
    99    36    97 1   
   100    36    98 1   
   101    36    99 1   
   102    37   100 1   
   103    37   101 1   
   104    37   102 1   
   105    38   103 1   
   106    40   104 1   
   107    40   106 1   
   108    43    51 1   
   109    43   105 1   
   110    46   106 2   
   111    47   106 1   
   112    51   108 2   
   113    51   109 2   
   114    66   107 1   
@<TRIPOS>SUBSTRUCTURE
     1 FH4         1 TEMP              0 ****  ****    0 ROOT
