@<TRIPOS>MOLECULE
FH5
   46    49     1     0     0
SMALL
No Charge or Current Charge


@<TRIPOS>ATOM
      1 Cl          -2.9450     3.5140    -0.1900 cl         1 FH5      -0.186000
      2 C02         -1.2660     2.9530    -0.3060 ca         1 FH5      -0.023000
      3 C03         -0.2770     3.8320    -0.7930 ca         1 FH5       0.388900
      4 N04          1.0340     3.4990    -0.9090 nb         1 FH5      -0.687000
      5 C05          1.3680     2.2580    -0.5300 ca         1 FH5       0.362500
      6 N06          2.5720     1.6490    -0.5420 na         1 FH5      -0.418300
      7 C07          2.4200     0.3560    -0.0700 cc         1 FH5       0.523400
      8 C08          3.5520    -0.5210     0.0210 cc         1 FH5      -0.249900
      9 C09          4.8330    -0.1950    -0.3280 cd         1 FH5      -0.149000
     10 N10          5.5670    -1.3540    -0.0660 na         1 FH5       0.143800
     11 C11          7.0100    -1.5370    -0.2720 c3         1 FH5       0.072900
     12 N12          4.7840    -2.3860     0.4330 nd         1 FH5      -0.531800
     13 C13          3.5790    -1.8540     0.4740 cc         1 FH5       0.313300
     14 C14          2.3800    -2.6220     0.9610 c3         1 FH5      -0.119400
     15 N15          1.1430     0.1100     0.2510 nd         1 FH5      -0.582100
     16 C16          0.4900     1.3210    -0.0400 ca         1 FH5      -0.014600
     17 C17         -0.8810     1.6520     0.0910 ca         1 FH5       0.427000
     18 N18         -1.8340     0.7190     0.5830 nh         1 FH5      -0.826400
     19 C19         -2.7780     0.0050    -0.3180 c5         1 FH5       0.201800
     20 C20         -3.4670    -0.9760     0.6780 c5         1 FH5       0.098700
     21 N21         -3.8140    -2.1990    -0.0660 ns         1 FH5      -0.503900
     22 C22         -4.9420    -2.1870    -0.8600 c          1 FH5       0.601100
     23 C23         -5.2080    -3.4940    -1.5960 c3         1 FH5      -0.180100
     24 O24         -5.6760    -1.2150    -0.9700 o          1 FH5      -0.599100
     25 C25         -2.2750    -1.3690     1.5840 c5         1 FH5      -0.105400
     26 C26         -1.6880     0.0310     1.8960 c5         1 FH5       0.218800
     27 H03         -0.5440     4.8420    -1.1010 h4         1 FH5       0.033100
     28 H06          3.4350     2.0660    -0.8460 hn         1 FH5       0.364000
     29 H09          5.2750     0.7140    -0.7230 h4         1 FH5       0.152000
     30 H111         7.4870    -1.7860     0.6840 h1         1 FH5       0.059367
     31 H112         7.1780    -2.3510    -0.9870 h1         1 FH5       0.059367
     32 H113         7.4490    -0.6120    -0.6650 h1         1 FH5       0.059367
     33 H141         1.6210    -2.6990     0.1750 hc         1 FH5       0.054700
     34 H142         2.6560    -3.6400     1.2600 hc         1 FH5       0.054700
     35 H143         1.9290    -2.1300     1.8300 hc         1 FH5       0.054700
     36 H191        -3.5070     0.6770    -0.7930 h1         1 FH5       0.057700
     37 H192        -2.2320    -0.5330    -1.1060 h1         1 FH5       0.057700
     38 H261        -0.6460    -0.0360     2.2390 h1         1 FH5       0.062700
     39 H262        -2.2680     0.5460     2.6760 h1         1 FH5       0.062700
     40 H20         -4.2970    -0.5140     1.2320 h1         1 FH5       0.094700
     41 H21         -3.2720    -3.0540    -0.0360 hn         1 FH5       0.310500
     42 H251        -2.5830    -1.9060     2.4880 hc         1 FH5       0.052200
     43 H252        -1.5370    -1.9880     1.0610 hc         1 FH5       0.052200
     44 H231        -4.3220    -3.7570    -2.1850 hc         1 FH5       0.060033
     45 H232        -5.2540    -4.3110    -0.8670 hc         1 FH5       0.060033
     46 H233        -6.1100    -3.4530    -2.2170 hc         1 FH5       0.060033
@<TRIPOS>BOND
     1     1     2 1   
     2     2     3 ar  
     3     2    17 ar  
     4     3     4 ar  
     5     3    27 1   
     6     4     5 ar  
     7     5     6 1   
     8     5    16 ar  
     9     6     7 1   
    10     6    28 1   
    11     7     8 1   
    12     7    15 2   
    13     8     9 2   
    14     8    13 1   
    15     9    10 1   
    16     9    29 1   
    17    10    11 1   
    18    10    12 1   
    19    11    30 1   
    20    11    31 1   
    21    11    32 1   
    22    12    13 2   
    23    13    14 1   
    24    14    33 1   
    25    14    34 1   
    26    14    35 1   
    27    15    16 1   
    28    16    17 ar  
    29    17    18 1   
    30    18    19 1   
    31    18    26 1   
    32    19    20 1   
    33    19    36 1   
    34    19    37 1   
    35    20    21 1   
    36    20    25 1   
    37    20    40 1   
    38    21    22 1   
    39    21    41 1   
    40    22    23 1   
    41    22    24 2   
    42    23    44 1   
    43    23    45 1   
    44    23    46 1   
    45    25    26 1   
    46    25    42 1   
    47    25    43 1   
    48    26    38 1   
    49    26    39 1   
@<TRIPOS>SUBSTRUCTURE
     1 FH5         1 TEMP              0 ****  ****    0 ROOT
