@<TRIPOS>MOLECULE
FH5
   46    49     1     0     0
SMALL
bcc


@<TRIPOS>ATOM
      1 CL          -2.9120     2.9250    -0.4100 cl         1 FH5      -0.094400
      2 C02         -1.2360     2.4980    -0.5380 ca         1 FH5      -0.179900
      3 C03         -0.3690     3.4980    -0.9750 ca         1 FH5       0.454200
      4 N04          0.9500     3.3750    -1.0190 nb         1 FH5      -0.687000
      5 C05          1.3850     2.2040    -0.5940 ca         1 FH5       0.427800
      6 N06          2.6780     1.7740    -0.5340 na         1 FH5      -0.368000
      7 C07          2.6590     0.4880    -0.0750 cc         1 FH5       0.523400
      8 C08          3.8520    -0.2920     0.1230 cc         1 FH5      -0.315200
      9 C09          5.1630     0.0810    -0.1150 cd         1 FH5      -0.116300
     10 N10          5.9250    -0.9630     0.2170 na         1 FH5       0.122400
     11 C11          7.3620    -1.0640     0.1340 c3         1 FH5       0.043600
     12 N12          5.2080    -1.9980     0.6570 nd         1 FH5      -0.531800
     13 C13          3.9460    -1.6190     0.6110 cc         1 FH5       0.378600
     14 C14          2.8520    -2.5330     1.0380 c3         1 FH5      -0.119400
     15 N15          1.4420     0.0640     0.1560 nd         1 FH5      -0.582100
     16 C16          0.6190     1.1140    -0.1520 ca         1 FH5      -0.079900
     17 C17         -0.7830     1.2290    -0.1240 ca         1 FH5       0.288600
     18 N18         -1.6240     0.2300     0.2830 nh         1 FH5      -0.688000
     19 C19         -2.7120    -0.2770    -0.5350 c5         1 FH5       0.201800
     20 C20         -3.4820    -1.1270     0.4700 c5         1 FH5       0.098700
     21 N21         -4.3880    -2.0750    -0.1210 ns         1 FH5      -0.570900
     22 C22         -5.6520    -1.7810    -0.4760 c          1 FH5       0.668100
     23 C23         -6.4210    -2.9110    -1.1140 c3         1 FH5      -0.180100
     24 O24         -6.1540    -0.6800    -0.2920 o          1 FH5      -0.599100
     25 C25         -2.3580    -1.8040     1.2510 c5         1 FH5      -0.105400
     26 C26         -1.2280    -0.7710     1.2790 c5         1 FH5       0.218800
     27 H03         -0.7830     4.4500    -1.2880 h4         1 FH5       0.033100
     28 H06          3.4880     2.3210    -0.7780 hn         1 FH5       0.313700
     29 H09          5.5910     0.9970    -0.4910 h4         1 FH5       0.170000
     30 H111         7.7790    -1.3010     1.1100 h1         1 FH5       0.059367
     31 H112         7.6460    -1.8400    -0.5750 h1         1 FH5       0.059367
     32 H113         7.7640    -0.1130    -0.2030 h1         1 FH5       0.059367
     33 H141         2.1620    -2.7340     0.2180 hc         1 FH5       0.054700
     34 H142         3.2630    -3.4790     1.3860 hc         1 FH5       0.054700
     35 H143         2.2610    -2.0920     1.8400 hc         1 FH5       0.054700
     36 H191        -3.3240     0.5100    -0.9670 h1         1 FH5       0.057700
     37 H192        -2.3400    -0.9050    -1.3570 h1         1 FH5       0.057700
     38 H261        -0.2680    -1.2320     1.0530 h1         1 FH5       0.062700
     39 H262        -1.1380    -0.2890     2.2550 h1         1 FH5       0.062700
     40 H20         -4.0470    -0.4610     1.1250 h1         1 FH5       0.094700
     41 H21         -4.0230    -2.9850    -0.3560 hn         1 FH5       0.310500
     42 H251        -2.6660    -2.1110     2.2490 hc         1 FH5       0.052200
     43 H252        -2.0340    -2.6990     0.7150 hc         1 FH5       0.052200
     44 H231        -5.8510    -3.8340    -1.1990 hc         1 FH5       0.060033
     45 H232        -7.3200    -3.1130    -0.5320 hc         1 FH5       0.060033
     46 H233        -6.7430    -2.6100    -2.1110 hc         1 FH5       0.060033
@<TRIPOS>BOND
     1     1     2 1   
     2     2     3 ar  
     3     2    17 ar  
     4     3     4 ar  
     5     3    27 1   
     6     4     5 ar  
     7     5     6 1   
     8     5    16 ar  
     9     6     7 1   
    10     6    28 1   
    11     7     8 1   
    12     7    15 2   
    13     8     9 2   
    14     8    13 1   
    15     9    10 1   
    16     9    29 1   
    17    10    11 1   
    18    10    12 1   
    19    11    30 1   
    20    11    31 1   
    21    11    32 1   
    22    12    13 2   
    23    13    14 1   
    24    14    33 1   
    25    14    34 1   
    26    14    35 1   
    27    15    16 1   
    28    16    17 ar  
    29    17    18 1   
    30    18    19 1   
    31    18    26 1   
    32    19    20 1   
    33    19    36 1   
    34    19    37 1   
    35    20    21 1   
    36    20    25 1   
    37    20    40 1   
    38    21    22 1   
    39    21    41 1   
    40    22    23 1   
    41    22    24 2   
    42    23    44 1   
    43    23    45 1   
    44    23    46 1   
    45    25    26 1   
    46    25    42 1   
    47    25    43 1   
    48    26    38 1   
    49    26    39 1   
@<TRIPOS>SUBSTRUCTURE
     1 FH5         1 TEMP              0 ****  ****    0 ROOT
