@<TRIPOS>MOLECULE
FH6
   27    27     1     0     0
SMALL
No Charge or Current Charge


@<TRIPOS>ATOM
      1 C2          22.9360    25.8540     1.9000 c5         1 FH6      -0.171400
      2 C3          22.3470    26.9780     2.7840 c5         1 FH6       0.041300
      3 C4          22.4810    26.3580     4.2180 c5         1 FH6       0.127700
      4 C6          22.4720    24.5910     2.6110 c          1 FH6       0.572000
      5 C9          23.8320    26.6580     4.9010 c3         1 FH6      -0.114100
      6 N           18.3930    29.4140     1.1830 n8         1 FH6      -0.986200
      7 C           18.4820    27.1470    -0.1310 c          1 FH6       0.580900
      8 CA          19.1800    28.4890     0.2840 c3         1 FH6       0.058500
      9 SG          20.5340    27.1340     2.3770 ss         1 FH6      -0.361000
     10 N7          22.3410    24.9250     3.9320 ns         1 FH6      -0.510900
     11 O8          22.0450    23.5500     2.1390 o          1 FH6      -0.545000
     12 H1          24.0270    25.8990     1.9750 hc         1 FH6       0.074200
     13 H2          22.6440    25.8620     0.8450 hc         1 FH6       0.074200
     14 H3          22.8540    27.9470     2.6770 h1         1 FH6       0.077700
     15 H4          21.6800    26.7250     4.8760 h1         1 FH6       0.078700
     16 H5          23.8900    26.1700     5.8810 hc         1 FH6       0.045367
     17 H6          24.6790    26.3050     4.3010 hc         1 FH6       0.045367
     18 H7          23.9580    27.7360     5.0580 hc         1 FH6       0.045367
     19 H9          17.5000    29.6560     0.7330 hn         1 FH6       0.410000
     20 H11         19.1290    26.4300    -0.6830 h4         1 FH6      -0.012800
     21 H12         19.3350    29.0330    -0.6590 h1         1 FH6       0.034700
     22 H15         21.9300    24.2430     4.5580 hn         1 FH6       0.330500
     23 CB          20.5930    28.2020     0.8600 c3         1 FH6       0.055600
     24 H8          18.8760    30.3170     1.2650 hn         1 FH6       0.410000
     25 O           17.3090    26.8720     0.1120 o          1 FH6      -0.487100
     26 H13         21.1980    27.6950     0.0980 h1         1 FH6       0.062700
     27 H14         21.0920    29.1470     1.1080 h1         1 FH6       0.062700
@<TRIPOS>BOND
     1     1     2 1   
     2     1     4 1   
     3     1    12 1   
     4     1    13 1   
     5     2     3 1   
     6     2     9 1   
     7     2    14 1   
     8     3     5 1   
     9     3    10 1   
    10     3    15 1   
    11     4    10 1   
    12     4    11 2   
    13     5    16 1   
    14     5    17 1   
    15     5    18 1   
    16     6     8 1   
    17     6    19 1   
    18     6    24 1   
    19     7     8 1   
    20     7    20 1   
    21     7    25 2   
    22     8    21 1   
    23     8    23 1   
    24     9    23 1   
    25    10    22 1   
    26    23    26 1   
    27    23    27 1   
@<TRIPOS>SUBSTRUCTURE
     1 FH6         1 TEMP              0 ****  ****    0 ROOT
