@<TRIPOS>MOLECULE
FH6
   27    27     1     0     0
SMALL
abcg2


@<TRIPOS>ATOM
      1 C2          22.5530    25.8960     1.8330 c5         1 FH6      -0.171400
      2 C3          22.3070    27.0730     2.7710 c5         1 FH6       0.041300
      3 C4          22.4360    26.4370     4.1690 c5         1 FH6       0.127700
      4 C6          22.0790    24.6920     2.6250 c          1 FH6       0.572000
      5 C9          23.8580    26.4990     4.7090 c3         1 FH6      -0.114100
      6 N           18.3320    29.0680     1.1730 n8         1 FH6      -0.986200
      7 C           19.0450    27.0430     0.0210 c          1 FH6       0.580900
      8 CA          19.3470    28.4870     0.3300 c3         1 FH6       0.058500
      9 SG          20.6120    27.7290     2.6160 ss         1 FH6      -0.361000
     10 N7          21.9970    25.0790     3.9110 ns         1 FH6      -0.510900
     11 O8          21.8370    23.5820     2.1870 o          1 FH6      -0.545000
     12 H1          23.6210    25.7750     1.6270 hc         1 FH6       0.074200
     13 H2          22.0510    25.9650     0.8690 hc         1 FH6       0.074200
     14 H3          23.0190    27.8870     2.6380 h1         1 FH6       0.077700
     15 H4          21.7630    26.9130     4.8860 h1         1 FH6       0.078700
     16 H5          23.9380    25.9410     5.6420 hc         1 FH6       0.045367
     17 H6          24.5720    26.0780     4.0000 hc         1 FH6       0.045367
     18 H7          24.1430    27.5320     4.9100 hc         1 FH6       0.045367
     19 H9          17.4160    28.9560     0.7570 hn         1 FH6       0.410000
     20 H11         19.8840    26.5080    -0.4620 h4         1 FH6      -0.012800
     21 H12         19.4550    28.9700    -0.6590 h1         1 FH6       0.034700
     22 H15         21.8050    24.4270     4.6570 hn         1 FH6       0.330500
     23 CB          20.7100    28.5630     1.0030 c3         1 FH6       0.055600
     24 H8          18.4890    30.0640     1.2590 hn         1 FH6       0.410000
     25 O           17.9900    26.5010     0.2230 o          1 FH6      -0.487100
     26 H13         21.4610    28.0720     0.3800 h1         1 FH6       0.062700
     27 H14         21.0180    29.6010     1.1300 h1         1 FH6       0.062700
@<TRIPOS>BOND
     1     1     2 1   
     2     1     4 1   
     3     1    12 1   
     4     1    13 1   
     5     2     3 1   
     6     2     9 1   
     7     2    14 1   
     8     3     5 1   
     9     3    10 1   
    10     3    15 1   
    11     4    10 1   
    12     4    11 2   
    13     5    16 1   
    14     5    17 1   
    15     5    18 1   
    16     6     8 1   
    17     6    19 1   
    18     6    24 1   
    19     7     8 1   
    20     7    20 1   
    21     7    25 2   
    22     8    21 1   
    23     8    23 1   
    24     9    23 1   
    25    10    22 1   
    26    23    26 1   
    27    23    27 1   
@<TRIPOS>SUBSTRUCTURE
     1 FH6         1 TEMP              0 ****  ****    0 ROOT
