@<TRIPOS>MOLECULE
FH7
   23    22     1     0     0
SMALL
No Charge or Current Charge


@<TRIPOS>ATOM
      1 N          -66.4980   -42.2000    26.2760 n8         1 FH7      -1.008200
      2 CA         -65.2830   -41.8450    27.0950 c3         1 FH7       0.022500
      3 CB         -64.0820   -41.4900    26.1720 c3         1 FH7      -0.046400
      4 CG         -64.3030   -40.2440    25.2780 c3         1 FH7      -0.104400
      5 CD         -63.0630   -39.8870    24.4320 c3         1 FH7       0.103000
      6 NE         -63.2620   -38.6880    23.5940 n          1 FH7      -0.298300
      7 OZ         -63.9350   -38.8920    22.3320 oh         1 FH7      -0.428100
      8 CZ         -62.7670   -37.4100    23.9580 c          1 FH7       0.605900
      9 OH         -62.9170   -36.4130    23.2560 o          1 FH7      -0.606100
     10 C          -64.8750   -42.8840    28.2320 c          1 FH7       0.720000
     11 O          -64.0310   -43.7400    27.9910 o          1 FH7      -0.728500
     12 OX0        -65.4270   -42.7870    29.3210 o          1 FH7      -0.728500
     13 HN1        -67.3120   -42.2730    26.9000 hn         1 FH7       0.384500
     14 HN2        -66.7300   -41.4120    25.6610 hn         1 FH7       0.384500
     15 HA         -65.5500   -40.9200    27.6240 h1         1 FH7      -0.005300
     16 HB1C       -63.2030   -41.3060    26.8040 hc         1 FH7       0.047700
     17 HB2C       -63.8370   -42.3540    25.5410 hc         1 FH7       0.047700
     18 HG1C       -65.1520   -40.4160    24.6060 hc         1 FH7       0.037700
     19 HG2C       -64.5610   -39.3860    25.9120 hc         1 FH7       0.037700
     20 HD1C       -62.2050   -39.7200    25.0970 h1         1 FH7       0.055700
     21 HD2C       -62.8130   -40.7350    23.7800 h1         1 FH7       0.055700
     22 HZ         -62.2450   -37.4090    24.9330 h5         1 FH7       0.014200
     23 H11        -64.8810   -38.6840    22.5080 ho         1 FH7       0.435000
@<TRIPOS>BOND
     1     1     2 1   
     2     1    13 1   
     3     1    14 1   
     4     2     3 1   
     5     2    10 1   
     6     2    15 1   
     7     3     4 1   
     8     3    16 1   
     9     3    17 1   
    10     4     5 1   
    11     4    18 1   
    12     4    19 1   
    13     5     6 1   
    14     5    20 1   
    15     5    21 1   
    16     6     7 1   
    17     6     8 1   
    18     7    23 1   
    19     8     9 2   
    20     8    22 1   
    21    10    11 1   
    22    10    12 1   
@<TRIPOS>SUBSTRUCTURE
     1 FH7         1 TEMP              0 ****  ****    0 ROOT
