@<TRIPOS>MOLECULE
FH7
   23    22     1     0     0
SMALL
abcg2


@<TRIPOS>ATOM
      1 N          -66.4600   -41.9740    26.3310 n8         1 FH7      -1.008200
      2 CA         -65.2540   -41.7250    27.1070 c3         1 FH7       0.022500
      3 CB         -64.0740   -41.4290    26.1860 c3         1 FH7      -0.046400
      4 CG         -64.3050   -40.2180    25.2910 c3         1 FH7      -0.104400
      5 CD         -63.0720   -39.9020    24.4540 c3         1 FH7       0.103000
      6 NE         -63.2450   -38.7630    23.5790 n          1 FH7      -0.298300
      7 OZ         -64.0530   -38.9520    22.4940 oh         1 FH7      -0.428100
      8 CZ         -62.7060   -37.5500    23.7720 c          1 FH7       0.605900
      9 OH         -62.8960   -36.5660    23.0840 o          1 FH7      -0.606100
     10 C          -64.9660   -42.9090    28.0710 c          1 FH7       0.720000
     11 O          -63.8110   -42.9870    28.5320 o          1 FH7      -0.728500
     12 OX0        -65.9280   -43.6580    28.3400 o          1 FH7      -0.728500
     13 HN1        -67.0850   -42.5220    26.9090 hn         1 FH7       0.384500
     14 HN2        -66.9340   -41.1040    26.1300 hn         1 FH7       0.384500
     15 HA         -65.3710   -40.8440    27.7660 h1         1 FH7      -0.005300
     16 HB1C       -63.1820   -41.2620    26.7940 hc         1 FH7       0.047700
     17 HB2C       -63.8720   -42.3070    25.5630 hc         1 FH7       0.047700
     18 HG1C       -65.1580   -40.3990    24.6310 hc         1 FH7       0.037700
     19 HG2C       -64.5520   -39.3450    25.9030 hc         1 FH7       0.037700
     20 HD1C       -62.2260   -39.6790    25.1070 h1         1 FH7       0.055700
     21 HD2C       -62.7830   -40.7650    23.8490 h1         1 FH7       0.055700
     22 HZ         -62.0500   -37.5520    24.6550 h5         1 FH7       0.014200
     23 H11        -64.9460   -38.6850    22.7560 ho         1 FH7       0.435000
@<TRIPOS>BOND
     1     1     2 1   
     2     1    13 1   
     3     1    14 1   
     4     2     3 1   
     5     2    10 1   
     6     2    15 1   
     7     3     4 1   
     8     3    16 1   
     9     3    17 1   
    10     4     5 1   
    11     4    18 1   
    12     4    19 1   
    13     5     6 1   
    14     5    20 1   
    15     5    21 1   
    16     6     7 1   
    17     6     8 1   
    18     7    23 1   
    19     8     9 2   
    20     8    22 1   
    21    10    11 1   
    22    10    12 1   
@<TRIPOS>SUBSTRUCTURE
     1 FH7         1 TEMP              0 ****  ****    0 ROOT
