@<TRIPOS>MOLECULE
FH8
   53    56     1     0     0
SMALL
No Charge or Current Charge


@<TRIPOS>ATOM
      1 O3          -6.2320    -0.2720    -1.8890 o          1 FH8      -0.716000
      2 O5           2.7370     0.2660     0.0440 os         1 FH8      -0.292000
      3 OE          -2.4580    -1.9430     2.9020 o          1 FH8      -0.672000
      4 O2          -0.6370    -0.8930     2.5560 o          1 FH8      -0.672000
      5 C13         -2.2750    -0.8120     0.8400 cc         1 FH8      -0.139200
      6 C14         -3.6270    -1.0190     0.5720 cd         1 FH8      -0.122000
      7 C15         -4.2600    -0.4980    -0.6230 cd         1 FH8      -0.107000
      8 C03         -5.7260    -0.7280    -0.8730 c          1 FH8       0.690000
      9 O4          -6.3720    -1.3670    -0.0540 o          1 FH8      -0.716000
     10 C16         -3.4610     0.2530    -1.5620 cd         1 FH8      -0.163000
     11 C11         -2.1190     0.4370    -1.3280 cc         1 FH8      -0.215000
     12 C12         -1.4820    -0.0940    -0.1540 cc         1 FH8      -0.161000
     13 C01         -0.0920     0.0350    -0.0670 cd         1 FH8       0.364000
     14 C34          0.5910     1.3390    -0.2410 ca         1 FH8      -0.199500
     15 C33         -0.1140     2.5580    -0.3670 ca         1 FH8       0.063000
     16 C32          0.5790     3.7720    -0.5020 ca         1 FH8      -0.235500
     17 C31          1.9810     3.8070    -0.4880 ca         1 FH8       0.414500
     18 N2           2.6770     5.0310    -0.6230 nh         1 FH8      -0.812900
     19 C311         2.0860     6.3130    -0.1700 c3         1 FH8       0.214850
     20 C321         4.0300     5.0890    -1.2270 c3         1 FH8       0.214850
     21 C36          2.6790     2.6070    -0.3150 ca         1 FH8      -0.272500
     22 C35          1.9940     1.3940    -0.1810 ca         1 FH8       0.274000
     23 C25          2.1790    -0.9820     0.1040 ca         1 FH8       0.274000
     24 C26          3.0430    -2.0780     0.1950 ca         1 FH8      -0.272500
     25 C21          2.5410    -3.3850     0.1930 ca         1 FH8       0.414500
     26 N3           3.4140    -4.4950     0.2830 nh         1 FH8      -0.812900
     27 C211         4.8030    -4.4310    -0.2300 c3         1 FH8       0.214850
     28 C221         2.9810    -5.7710     0.8990 c3         1 FH8       0.214850
     29 C22          1.1560    -3.5720     0.0740 ca         1 FH8      -0.235500
     30 C23          0.2850    -2.4750    -0.0180 ca         1 FH8       0.063000
     31 C24          0.7880    -1.1550     0.0320 ca         1 FH8      -0.199500
     32 H14         -4.2440    -1.5560     1.2880 ha         1 FH8       0.231000
     33 H16         -3.9120     0.6540    -2.4670 ha         1 FH8       0.196000
     34 H11         -1.5180     0.9490    -2.0770 ha         1 FH8       0.149000
     35 H33         -1.2000     2.5880    -0.3430 ha         1 FH8       0.158500
     36 H32          0.0090     4.6880    -0.6190 ha         1 FH8       0.124000
     37 H313         1.4880     6.1630     0.7390 h1         1 FH8       0.042033
     38 H311         2.8710     7.0430     0.0670 h1         1 FH8       0.042033
     39 H312         1.4410     6.7370    -0.9510 h1         1 FH8       0.042033
     40 H321         4.1290     4.3420    -2.0260 h1         1 FH8       0.042033
     41 H322         4.2160     6.0760    -1.6730 h1         1 FH8       0.042033
     42 H323         4.7990     4.8990    -0.4670 h1         1 FH8       0.042033
     43 H36          3.7620     2.6040    -0.2590 ha         1 FH8       0.127000
     44 H26          4.1100    -1.8980     0.2660 ha         1 FH8       0.127000
     45 H211         5.4740    -4.0000     0.5250 h1         1 FH8       0.042033
     46 H212         5.1700    -5.4330    -0.4890 h1         1 FH8       0.042033
     47 H213         4.8520    -3.8160    -1.1390 h1         1 FH8       0.042033
     48 H221         2.4810    -6.4070     0.1570 h1         1 FH8       0.042033
     49 H222         3.8410    -6.3200     1.3070 h1         1 FH8       0.042033
     50 H223         2.2860    -5.5840     1.7290 h1         1 FH8       0.042033
     51 H22          0.7410    -4.5740     0.0320 ha         1 FH8       0.124000
     52 H23         -0.7770    -2.6700    -0.1410 ha         1 FH8       0.158500
     53 C02         -1.7380    -1.2650     2.1820 c          1 FH8       0.701200
@<TRIPOS>BOND
     1     1     8 1   
     2     2    22 1   
     3     2    23 1   
     4     3    53 1   
     5     4    53 1   
     6     5     6 2   
     7     5    12 1   
     8     5    53 1   
     9     6     7 1   
    10     6    32 1   
    11     7     8 2   
    12     7    10 1   
    13     8     9 1   
    14    10    11 2   
    15    10    33 1   
    16    11    12 1   
    17    11    34 1   
    18    12    13 2   
    19    13    14 1   
    20    13    31 1   
    21    14    15 ar  
    22    14    22 ar  
    23    15    16 ar  
    24    15    35 1   
    25    16    17 ar  
    26    16    36 1   
    27    17    18 1   
    28    17    21 ar  
    29    18    19 1   
    30    18    20 1   
    31    19    37 1   
    32    19    38 1   
    33    19    39 1   
    34    20    40 1   
    35    20    41 1   
    36    20    42 1   
    37    21    22 ar  
    38    21    43 1   
    39    23    24 ar  
    40    23    31 ar  
    41    24    25 ar  
    42    24    44 1   
    43    25    26 1   
    44    25    29 ar  
    45    26    27 1   
    46    26    28 1   
    47    27    45 1   
    48    27    46 1   
    49    27    47 1   
    50    28    48 1   
    51    28    49 1   
    52    28    50 1   
    53    29    30 ar  
    54    29    51 1   
    55    30    31 ar  
    56    30    52 1   
@<TRIPOS>SUBSTRUCTURE
     1 FH8         1 TEMP              0 ****  ****    0 ROOT
