@<TRIPOS>MOLECULE
FH8
   53    56     1     0     0
SMALL
bcc


@<TRIPOS>ATOM
      1 O3          -6.0930    -0.7720    -1.9520 o          1 FH8      -0.821300
      2 O5           2.7790     0.1960    -0.1550 os         1 FH8      -0.380800
      3 OE          -2.4830    -0.1420     3.2930 o          1 FH8      -0.777300
      4 O2          -0.4760     0.0420     2.3340 o          1 FH8      -0.777300
      5 C13         -2.3140    -0.2330     0.9330 cc         1 FH8      -0.139200
      6 C14         -3.6780    -0.3960     0.7230 cd         1 FH8      -0.072000
      7 C15         -4.2080    -0.5140    -0.5570 cd         1 FH8      -0.107000
      8 C03         -5.7060    -0.7010    -0.7710 c          1 FH8       0.900600
      9 O4          -6.4110    -0.7680     0.2540 o          1 FH8      -0.821300
     10 C16         -3.3370    -0.4630    -1.6420 cd         1 FH8      -0.113000
     11 C11         -1.9730    -0.3050    -1.4520 cc         1 FH8      -0.165000
     12 C12         -1.4590    -0.1910    -0.1640 cc         1 FH8      -0.161000
     13 C01          0.0060    -0.0450    -0.0110 cd         1 FH8       0.364000
     14 C34          0.6160     1.2150    -0.1440 ca         1 FH8      -0.264800
     15 C33         -0.0980     2.4320    -0.1910 ca         1 FH8       0.045000
     16 C32          0.5340     3.6340    -0.2880 ca         1 FH8      -0.253500
     17 C31          1.9590     3.7100    -0.3480 ca         1 FH8       0.276100
     18 N2           2.5820     4.8960    -0.4480 nh         1 FH8      -0.674500
     19 C311         1.8210     6.1300    -0.4890 c3         1 FH8       0.214850
     20 C321         4.0270     4.9520    -0.5380 c3         1 FH8       0.214850
     21 C36          2.6860     2.5050    -0.3040 ca         1 FH8      -0.355800
     22 C35          2.0200     1.3050    -0.1990 ca         1 FH8       0.449000
     23 C25          2.2290    -1.0290    -0.0790 ca         1 FH8       0.449000
     24 C26          3.0990    -2.0960    -0.0690 ca         1 FH8      -0.355800
     25 C21          2.5960    -3.4090     0.0120 ca         1 FH8       0.276100
     26 N3           3.4190    -4.4700     0.0250 nh         1 FH8      -0.674500
     27 C211         4.8540    -4.2770    -0.0350 c3         1 FH8       0.214850
     28 C221         2.8890    -5.8150     0.1370 c3         1 FH8       0.214850
     29 C22          1.1790    -3.5810     0.0790 ca         1 FH8      -0.253500
     30 C23          0.3440    -2.5070     0.0620 ca         1 FH8       0.045000
     31 C24          0.8310    -1.1840    -0.0190 ca         1 FH8      -0.264800
     32 H14         -4.3390    -0.4310     1.5790 ha         1 FH8       0.181000
     33 H16         -3.7280    -0.5510    -2.6470 ha         1 FH8       0.146000
     34 H11         -1.3070    -0.2740    -2.3050 ha         1 FH8       0.099000
     35 H33         -1.1790     2.4070    -0.1460 ha         1 FH8       0.176500
     36 H32         -0.0660     4.5310    -0.3190 ha         1 FH8       0.142000
     37 H313         1.2040     6.2520     0.4020 h1         1 FH8       0.042033
     38 H311         2.5070     6.9690    -0.5330 h1         1 FH8       0.042033
     39 H312         1.1740     6.1790    -1.3670 h1         1 FH8       0.042033
     40 H321         4.3970     4.3990    -1.4040 h1         1 FH8       0.042033
     41 H322         4.3390     5.9860    -0.6460 h1         1 FH8       0.042033
     42 H323         4.5050     4.5490     0.3570 h1         1 FH8       0.042033
     43 H36          3.7660     2.4920    -0.3470 ha         1 FH8       0.145000
     44 H26          4.1600    -1.8980    -0.1220 ha         1 FH8       0.145000
     45 H211         5.2200    -3.7030     0.8200 h1         1 FH8       0.042033
     46 H212         5.3480    -5.2420    -0.0260 h1         1 FH8       0.042033
     47 H213         5.1510    -3.7570    -0.9490 h1         1 FH8       0.042033
     48 H221         2.2180    -6.0550    -0.6900 h1         1 FH8       0.042033
     49 H222         3.7100    -6.5240     0.1140 h1         1 FH8       0.042033
     50 H223         2.3470    -5.9600     1.0740 h1         1 FH8       0.042033
     51 H22          0.7530    -4.5710     0.1480 ha         1 FH8       0.142000
     52 H23         -0.7250    -2.6650     0.1160 ha         1 FH8       0.176500
     53 C02         -1.7190    -0.1010     2.3170 c          1 FH8       0.911800
@<TRIPOS>BOND
     1     1     8 1   
     2     2    22 1   
     3     2    23 1   
     4     3    53 1   
     5     4    53 1   
     6     5     6 2   
     7     5    12 1   
     8     5    53 1   
     9     6     7 1   
    10     6    32 1   
    11     7     8 2   
    12     7    10 1   
    13     8     9 1   
    14    10    11 2   
    15    10    33 1   
    16    11    12 1   
    17    11    34 1   
    18    12    13 2   
    19    13    14 1   
    20    13    31 1   
    21    14    15 ar  
    22    14    22 ar  
    23    15    16 ar  
    24    15    35 1   
    25    16    17 ar  
    26    16    36 1   
    27    17    18 1   
    28    17    21 ar  
    29    18    19 1   
    30    18    20 1   
    31    19    37 1   
    32    19    38 1   
    33    19    39 1   
    34    20    40 1   
    35    20    41 1   
    36    20    42 1   
    37    21    22 ar  
    38    21    43 1   
    39    23    24 ar  
    40    23    31 ar  
    41    24    25 ar  
    42    24    44 1   
    43    25    26 1   
    44    25    29 ar  
    45    26    27 1   
    46    26    28 1   
    47    27    45 1   
    48    27    46 1   
    49    27    47 1   
    50    28    48 1   
    51    28    49 1   
    52    28    50 1   
    53    29    30 ar  
    54    29    51 1   
    55    30    31 ar  
    56    30    52 1   
@<TRIPOS>SUBSTRUCTURE
     1 FH8         1 TEMP              0 ****  ****    0 ROOT
