@<TRIPOS>MOLECULE
FH9
   68    68     1     0     0
SMALL
bcc


@<TRIPOS>ATOM
      1 C23          1.0690    -2.8160    -2.0440 c6         1 FH9      -0.073400
      2 C24          0.8970    -4.2220    -1.4780 c6         1 FH9      -0.073400
      3 C25          2.0150    -4.5650    -0.5010 c6         1 FH9      -0.073400
      4 C28          2.1080    -3.5160     0.5990 c6         1 FH9      -0.073400
      5 C29          2.2840    -2.1110     0.0260 c6         1 FH9      -0.073400
      6 C22          1.1620    -1.7480    -0.9500 c6         1 FH9      -0.057700
      7 C21          1.3220    -0.3750    -1.6020 c3         1 FH9      -0.091400
      8 C14          1.0540     0.8610    -0.7210 c3         1 FH9       0.065700
      9 C15          2.1070     1.0710     0.3660 c          1 FH9       0.660100
     10 O16          1.8260     1.0730     1.5590 o          1 FH9      -0.613100
     11 N17          3.3540     1.2410    -0.0840 ns         1 FH9      -0.578900
     12 C18          4.5070     1.3410     0.7870 c3         1 FH9       0.106000
     13 C19          5.7850     1.0990    -0.0010 c3         1 FH9      -0.093400
     14 C20          7.0570     1.2180     0.8380 c3         1 FH9      -0.056700
     15 C26          7.1200     0.1610     1.9370 c3         1 FH9      -0.088600
     16 C27          8.2850     1.1230    -0.0630 c3         1 FH9      -0.088600
     17 N13         -0.2380     0.8380    -0.0950 ns         1 FH9      -0.597900
     18 C11         -1.3860     1.0880    -0.7760 c          1 FH9       0.792100
     19 O12         -1.3890     1.4080    -1.9620 o          1 FH9      -0.661100
     20 N10         -2.5280     0.9030    -0.0580 ns         1 FH9      -0.525900
     21 C6          -3.7710     1.4850    -0.5120 c3         1 FH9      -0.041300
     22 C7          -3.7640     3.0350    -0.4930 c          1 FH9       0.920600
     23 O8          -4.7450     3.5780    -1.0410 o          1 FH9      -0.829800
     24 O9          -2.8110     3.6020     0.0700 o          1 FH9      -0.829800
     25 C5          -4.9200     0.9440     0.3380 c3         1 FH9      -0.068400
     26 C4          -5.1090    -0.5660     0.2440 c3         1 FH9      -0.077400
     27 C3          -6.2610    -1.0640     1.1070 c3         1 FH9      -0.080400
     28 C2          -6.4820    -2.5640     0.9910 c3         1 FH9       0.144800
     29 N1          -7.5640    -3.0030     1.8620 n8         1 FH9      -0.886800
     30 H231         1.9800    -2.7790    -2.6530 hc         1 FH9       0.038200
     31 H232         0.2390    -2.5830    -2.7180 hc         1 FH9       0.038200
     32 H241        -0.0680    -4.2880    -0.9630 hc         1 FH9       0.035950
     33 H242         0.8640    -4.9510    -2.2920 hc         1 FH9       0.035950
     34 H22          0.2130    -1.7570    -0.3970 hc         1 FH9       0.065700
     35 H251         1.8570    -5.5570    -0.0720 hc         1 FH9       0.029700
     36 H252         2.9680    -4.6070    -1.0420 hc         1 FH9       0.029700
     37 H281         1.1940    -3.5440     1.2040 hc         1 FH9       0.035950
     38 H282         2.9330    -3.7440     1.2780 hc         1 FH9       0.035950
     39 H291         2.3350    -1.4010     0.8520 hc         1 FH9       0.038200
     40 H292         3.2450    -2.0520    -0.4980 hc         1 FH9       0.038200
     41 H211         2.3190    -0.2960    -2.0480 hc         1 FH9       0.048200
     42 H212         0.6210    -0.3070    -2.4380 hc         1 FH9       0.048200
     43 H14          1.1100     1.7330    -1.3820 h1         1 FH9       0.082700
     44 H13         -0.2700     0.5940     0.8820 hn         1 FH9       0.325500
     45 H17          3.5090     1.2900    -1.0790 hn         1 FH9       0.313500
     46 H181         4.5440     2.3250     1.2660 h1         1 FH9       0.049700
     47 H182         4.4020     0.6030     1.5840 h1         1 FH9       0.049700
     48 H191         5.7460     0.1040    -0.4600 hc         1 FH9       0.041700
     49 H192         5.8330     1.8200    -0.8250 hc         1 FH9       0.041700
     50 H20          7.0590     2.2070     1.3120 hc         1 FH9       0.047700
     51 H261         7.0840    -0.8440     1.5100 hc         1 FH9       0.032033
     52 H262         8.0470     0.2440     2.5060 hc         1 FH9       0.032033
     53 H263         6.2970     0.2490     2.6470 hc         1 FH9       0.032033
     54 H271         8.2850     1.9040    -0.8240 hc         1 FH9       0.032033
     55 H272         9.2070     1.2190     0.5130 hc         1 FH9       0.032033
     56 H273         8.3170     0.1580    -0.5760 hc         1 FH9       0.032033
     57 H10         -2.4200     0.8690     0.9450 hn         1 FH9       0.279500
     58 H6          -3.9390     1.1640    -1.5440 h1         1 FH9       0.063700
     59 H51C        -4.7610     1.2290     1.3860 hc         1 FH9       0.046200
     60 H52C        -5.8380     1.4440     0.0230 hc         1 FH9       0.046200
     61 H41C        -5.2890    -0.8400    -0.8020 hc         1 FH9       0.033200
     62 H42C        -4.1880    -1.0770     0.5380 hc         1 FH9       0.033200
     63 H31C        -6.0750    -0.8110     2.1550 hc         1 FH9       0.041200
     64 H32C        -7.1830    -0.5420     0.8230 hc         1 FH9       0.041200
     65 H21C        -6.6410    -2.8190    -0.0670 h1         1 FH9       0.023200
     66 H22C        -5.5680    -3.0830     1.2950 h1         1 FH9       0.023200
     67 H11N        -8.4340    -2.5980     1.5370 hn         1 FH9       0.326300
     68 H12N        -7.6840    -4.0040     1.7710 hn         1 FH9       0.326300
@<TRIPOS>BOND
     1     1     2 1   
     2     1     6 1   
     3     1    30 1   
     4     1    31 1   
     5     2     3 1   
     6     2    32 1   
     7     2    33 1   
     8     3     4 1   
     9     3    35 1   
    10     3    36 1   
    11     4     5 1   
    12     4    37 1   
    13     4    38 1   
    14     5     6 1   
    15     5    39 1   
    16     5    40 1   
    17     6     7 1   
    18     6    34 1   
    19     7     8 1   
    20     7    41 1   
    21     7    42 1   
    22     8     9 1   
    23     8    17 1   
    24     8    43 1   
    25     9    10 2   
    26     9    11 1   
    27    11    12 1   
    28    11    45 1   
    29    12    13 1   
    30    12    46 1   
    31    12    47 1   
    32    13    14 1   
    33    13    48 1   
    34    13    49 1   
    35    14    15 1   
    36    14    16 1   
    37    14    50 1   
    38    15    51 1   
    39    15    52 1   
    40    15    53 1   
    41    16    54 1   
    42    16    55 1   
    43    16    56 1   
    44    17    18 1   
    45    17    44 1   
    46    18    19 2   
    47    18    20 1   
    48    20    21 1   
    49    20    57 1   
    50    21    22 1   
    51    21    25 1   
    52    21    58 1   
    53    22    23 1   
    54    22    24 1   
    55    25    26 1   
    56    25    59 1   
    57    25    60 1   
    58    26    27 1   
    59    26    61 1   
    60    26    62 1   
    61    27    28 1   
    62    27    63 1   
    63    27    64 1   
    64    28    29 1   
    65    28    65 1   
    66    28    66 1   
    67    29    67 1   
    68    29    68 1   
@<TRIPOS>SUBSTRUCTURE
     1 FH9         1 TEMP              0 ****  ****    0 ROOT
