@<TRIPOS>MOLECULE
FH9
   68    68     1     0     0
SMALL
No Charge or Current Charge


@<TRIPOS>ATOM
      1 C23          0.1810    -2.5300    -1.4560 c6         1 FH9      -0.073400
      2 C24         -0.0710    -3.7560    -0.5440 c6         1 FH9      -0.073400
      3 C25          1.1400    -4.0180     0.3810 c6         1 FH9      -0.073400
      4 C28          1.4750    -2.7620     1.2180 c6         1 FH9      -0.073400
      5 C29          1.7190    -1.5270     0.3150 c6         1 FH9      -0.073400
      6 C22          0.5130    -1.2540    -0.6310 c6         1 FH9      -0.057700
      7 C21          0.7420    -0.0340    -1.5890 c3         1 FH9      -0.091400
      8 C14          0.8630     1.3850    -0.9440 c3         1 FH9       0.065700
      9 C15          2.2460     1.6630    -0.2710 c          1 FH9       0.593100
     10 O16          2.3570     2.0450     0.8890 o          1 FH9      -0.613100
     11 N17          3.3510     1.4510    -1.0710 ns         1 FH9      -0.511900
     12 C18          4.7390     1.5440    -0.6140 c3         1 FH9       0.106000
     13 C19          5.1660     0.2840     0.1710 c3         1 FH9      -0.093400
     14 C20          6.6580     0.2630     0.5970 c3         1 FH9      -0.056700
     15 C26          7.0260     1.4270     1.5480 c3         1 FH9      -0.088600
     16 C27          7.0330    -1.0980     1.2260 c3         1 FH9      -0.088600
     17 N13         -0.2430     1.6550     0.0020 ns         1 FH9      -0.530900
     18 C11         -1.5600     1.7700    -0.3430 c          1 FH9       0.658100
     19 O12         -1.9560     1.7940    -1.4970 o          1 FH9      -0.661100
     20 N10         -2.3800     1.8440     0.7520 ns         1 FH9      -0.458900
     21 C6          -3.8630     1.8210     0.7100 c3         1 FH9      -0.041300
     22 C7          -4.4530     2.7920     1.7790 c          1 FH9       0.710000
     23 O8          -5.2050     3.6790     1.3990 o          1 FH9      -0.724500
     24 O9          -4.0840     2.6800     2.9410 o          1 FH9      -0.724500
     25 C5          -4.4250     0.3830     0.8780 c3         1 FH9      -0.068400
     26 C4          -3.9860    -0.6150    -0.2220 c3         1 FH9      -0.077400
     27 C3          -4.6260    -2.0120    -0.0680 c3         1 FH9      -0.080400
     28 C2          -4.1820    -2.9970    -1.1680 c3         1 FH9       0.144800
     29 N1          -4.8200    -4.3160    -1.0050 n8         1 FH9      -0.997200
     30 H231         1.0050    -2.7530    -2.1480 hc         1 FH9       0.038200
     31 H232        -0.7080    -2.3550    -2.0770 hc         1 FH9       0.038200
     32 H241        -0.9710    -3.5880     0.0640 hc         1 FH9       0.035950
     33 H242        -0.2700    -4.6440    -1.1590 hc         1 FH9       0.035950
     34 H22         -0.3660    -1.0190    -0.0150 hc         1 FH9       0.065700
     35 H251         0.9250    -4.8640     1.0480 hc         1 FH9       0.029700
     36 H252         2.0130    -4.3060    -0.2210 hc         1 FH9       0.029700
     37 H281         0.6520    -2.5520     1.9150 hc         1 FH9       0.035950
     38 H282         2.3640    -2.9520     1.8350 hc         1 FH9       0.035950
     39 H291         1.9010    -0.6630     0.9640 hc         1 FH9       0.038200
     40 H292         2.6320    -1.6780    -0.2760 hc         1 FH9       0.038200
     41 H211         1.6160    -0.2240    -2.2220 hc         1 FH9       0.048200
     42 H212        -0.1000     0.0080    -2.2900 hc         1 FH9       0.048200
     43 H14          0.7920     2.1190    -1.7580 h1         1 FH9       0.082700
     44 H13         -0.0190     1.6870     0.9890 hn         1 FH9       0.325500
     45 H17          3.1780     1.1510    -2.0230 hn         1 FH9       0.313500
     46 H181         5.3870     1.6640    -1.4930 h1         1 FH9       0.049700
     47 H182         4.8470     2.4380     0.0130 h1         1 FH9       0.049700
     48 H191         4.5350     0.1810     1.0620 hc         1 FH9       0.041700
     49 H192         4.9680    -0.5940    -0.4560 hc         1 FH9       0.041700
     50 H20          7.2650     0.3760    -0.3110 hc         1 FH9       0.047700
     51 H261         6.4050     1.4030     2.4520 hc         1 FH9       0.032033
     52 H262         8.0770     1.3590     1.8540 hc         1 FH9       0.032033
     53 H263         6.8880     2.3980     1.0590 hc         1 FH9       0.032033
     54 H271         6.8270    -1.9190     0.5280 hc         1 FH9       0.032033
     55 H272         8.1010    -1.1300     1.4760 hc         1 FH9       0.032033
     56 H273         6.4600    -1.2760     2.1440 hc         1 FH9       0.032033
     57 H10         -1.9370     1.8450     1.6610 hn         1 FH9       0.279500
     58 H6          -4.1860     2.2000    -0.2680 h1         1 FH9       0.063700
     59 H51C        -4.1270    -0.0090     1.8580 hc         1 FH9       0.046200
     60 H52C        -5.5210     0.4390     0.8840 hc         1 FH9       0.046200
     61 H41C        -4.2480    -0.2050    -1.2050 hc         1 FH9       0.033200
     62 H42C        -2.8950    -0.7280    -0.2010 hc         1 FH9       0.033200
     63 H31C        -4.3600    -2.4230     0.9140 hc         1 FH9       0.041200
     64 H32C        -5.7190    -1.9100    -0.0910 hc         1 FH9       0.041200
     65 H21C        -4.4530    -2.5970    -2.1550 h1         1 FH9       0.023200
     66 H22C        -3.0920    -3.1270    -1.1330 h1         1 FH9       0.023200
     67 H11N        -5.8350    -4.2100    -1.1170 hn         1 FH9       0.381500
     68 H12N        -4.5500    -4.9170    -1.7930 hn         1 FH9       0.381500
@<TRIPOS>BOND
     1     1     2 1   
     2     1     6 1   
     3     1    30 1   
     4     1    31 1   
     5     2     3 1   
     6     2    32 1   
     7     2    33 1   
     8     3     4 1   
     9     3    35 1   
    10     3    36 1   
    11     4     5 1   
    12     4    37 1   
    13     4    38 1   
    14     5     6 1   
    15     5    39 1   
    16     5    40 1   
    17     6     7 1   
    18     6    34 1   
    19     7     8 1   
    20     7    41 1   
    21     7    42 1   
    22     8     9 1   
    23     8    17 1   
    24     8    43 1   
    25     9    10 2   
    26     9    11 1   
    27    11    12 1   
    28    11    45 1   
    29    12    13 1   
    30    12    46 1   
    31    12    47 1   
    32    13    14 1   
    33    13    48 1   
    34    13    49 1   
    35    14    15 1   
    36    14    16 1   
    37    14    50 1   
    38    15    51 1   
    39    15    52 1   
    40    15    53 1   
    41    16    54 1   
    42    16    55 1   
    43    16    56 1   
    44    17    18 1   
    45    17    44 1   
    46    18    19 2   
    47    18    20 1   
    48    20    21 1   
    49    20    57 1   
    50    21    22 1   
    51    21    25 1   
    52    21    58 1   
    53    22    23 1   
    54    22    24 1   
    55    25    26 1   
    56    25    59 1   
    57    25    60 1   
    58    26    27 1   
    59    26    61 1   
    60    26    62 1   
    61    27    28 1   
    62    27    63 1   
    63    27    64 1   
    64    28    29 1   
    65    28    65 1   
    66    28    66 1   
    67    29    67 1   
    68    29    68 1   
@<TRIPOS>SUBSTRUCTURE
     1 FH9         1 TEMP              0 ****  ****    0 ROOT
