@<TRIPOS>MOLECULE
FHB
   15    15     1     0     0
SMALL
abcg2


@<TRIPOS>ATOM
      1 C1          -0.1780    -0.0020     0.9310 ca         1 FHB      -0.143600
      2 C2           0.8790     0.0650     0.0270 ca         1 FHB      -0.082000
      3 C3           0.6240     0.1280    -1.3230 ca         1 FHB       0.035000
      4 F3           1.6520     0.1920    -2.1990 f          1 FHB      -0.218000
      5 C4          -0.6670     0.1300    -1.8420 ca         1 FHB       0.069100
      6 O4          -0.9320     0.1910    -3.1590 oh         1 FHB      -0.551100
      7 C5          -1.7210     0.0640    -0.9370 ca         1 FHB      -0.158000
      8 C6          -1.4750    -0.0010     0.4260 ca         1 FHB      -0.068000
      9 C7           0.0910    -0.0740     2.4260 c          1 FHB       0.715600
     10 O1          -0.9070    -0.1300     3.1700 o          1 FHB      -0.719000
     11 O2           1.2860    -0.0700     2.7780 o          1 FHB      -0.719000
     12 H2           1.9030     0.0660     0.3790 ha         1 FHB       0.144000
     13 HO4         -0.1190     0.2440    -3.6760 ho         1 FHB       0.458000
     14 H5          -2.7370     0.0650    -1.3150 ha         1 FHB       0.104000
     15 H6          -2.3110    -0.0510     1.1110 ha         1 FHB       0.133000
@<TRIPOS>BOND
     1     1     2 ar  
     2     1     8 ar  
     3     1     9 1   
     4     2     3 ar  
     5     2    12 1   
     6     3     4 1   
     7     3     5 ar  
     8     5     6 1   
     9     5     7 ar  
    10     6    13 1   
    11     7     8 ar  
    12     7    14 1   
    13     8    15 1   
    14     9    10 1   
    15     9    11 1   
@<TRIPOS>SUBSTRUCTURE
     1 FHB         1 TEMP              0 ****  ****    0 ROOT
