@<TRIPOS>MOLECULE
FHB
   15    15     1     0     0
SMALL
No Charge or Current Charge


@<TRIPOS>ATOM
      1 C1          -0.1770    -0.0030     0.9400 ca         1 FHB      -0.143600
      2 C2           0.8930     0.0650     0.0140 ca         1 FHB      -0.082000
      3 C3           0.6400     0.1320    -1.3660 ca         1 FHB       0.035000
      4 F3           1.6780     0.1960    -2.2320 f          1 FHB      -0.218000
      5 C4          -0.6830     0.1320    -1.8480 ca         1 FHB       0.069100
      6 O4          -0.9330     0.1960    -3.1890 oh         1 FHB      -0.551100
      7 C5          -1.7510     0.0650    -0.9420 ca         1 FHB      -0.158000
      8 C6          -1.5020    -0.0020     0.4410 ca         1 FHB      -0.068000
      9 C7           0.0930    -0.0740     2.4340 c          1 FHB       0.715600
     10 O1          -0.8600    -0.1320     3.1980 o          1 FHB      -0.719000
     11 O2           1.2530    -0.0720     2.8190 o          1 FHB      -0.719000
     12 H2           1.9240     0.0670     0.3610 ha         1 FHB       0.144000
     13 HO4         -0.0670     0.2360    -3.6520 ho         1 FHB       0.458000
     14 H5          -2.7750     0.0640    -1.3080 ha         1 FHB       0.104000
     15 H6          -2.3470    -0.0530     1.1260 ha         1 FHB       0.133000
@<TRIPOS>BOND
     1     1     2 ar  
     2     1     8 ar  
     3     1     9 1   
     4     2     3 ar  
     5     2    12 1   
     6     3     4 1   
     7     3     5 ar  
     8     5     6 1   
     9     5     7 ar  
    10     6    13 1   
    11     7     8 ar  
    12     7    14 1   
    13     8    15 1   
    14     9    10 1   
    15     9    11 1   
@<TRIPOS>SUBSTRUCTURE
     1 FHB         1 TEMP              0 ****  ****    0 ROOT
