@<TRIPOS>MOLECULE
FHC
   19    19     1     0     0
SMALL
bcc


@<TRIPOS>ATOM
      1 C1           0.3070    -0.7670     0.1050 ca         1 FHC       0.001200
      2 C7          -1.0910    -1.2120     0.0890 ce         1 FHC      -0.246200
      3 C8          -2.1970    -0.4790    -0.0220 cf         1 FHC       0.088300
      4 C9          -2.3910     1.0080    -0.2750 c          1 FHC       0.912800
      5 O3          -1.4450     1.5990    -0.8190 o          1 FHC      -0.800300
      6 O2          -3.4880     1.4690     0.0790 o          1 FHC      -0.800300
      7 F1          -3.3740    -1.1450     0.0720 f          1 FHC      -0.202500
      8 C6           1.2730    -1.5400    -0.5430 ca         1 FHC      -0.078500
      9 C5           2.6140    -1.1930    -0.5340 ca         1 FHC      -0.199500
     10 C4           3.0290    -0.0560     0.1530 ca         1 FHC       0.101100
     11 O1           4.3430     0.2480     0.1440 oh         1 FHC      -0.515100
     12 C3           2.0840     0.7120     0.8310 ca         1 FHC      -0.199500
     13 C2           0.7460     0.3570     0.8040 ca         1 FHC      -0.078500
     14 HC7         -1.2350    -2.2840     0.2000 ha         1 FHC       0.100000
     15 HC6          0.9700    -2.4340    -1.0740 ha         1 FHC       0.134000
     16 HC5          3.3400    -1.8060    -1.0530 ha         1 FHC       0.119000
     17 HO1          4.5060     1.0380     0.6700 ho         1 FHC       0.411000
     18 HC3          2.3930     1.5900     1.3880 ha         1 FHC       0.119000
     19 HC2          0.0420     0.9570     1.3630 ha         1 FHC       0.134000
@<TRIPOS>BOND
     1     1     2 1   
     2     1     8 ar  
     3     1    13 ar  
     4     2     3 2   
     5     2    14 1   
     6     3     4 1   
     7     3     7 1   
     8     4     5 1   
     9     4     6 1   
    10     8     9 ar  
    11     8    15 1   
    12     9    10 ar  
    13     9    16 1   
    14    10    11 1   
    15    10    12 ar  
    16    11    17 1   
    17    12    13 ar  
    18    12    18 1   
    19    13    19 1   
@<TRIPOS>SUBSTRUCTURE
     1 FHC         1 TEMP              0 ****  ****    0 ROOT
