@<TRIPOS>MOLECULE
FHC
   19    19     1     0     0
SMALL
No Charge or Current Charge


@<TRIPOS>ATOM
      1 C1           0.3200    -0.7740     0.1750 ca         1 FHC       0.001200
      2 C7          -1.1060    -1.1940     0.2290 ce         1 FHC      -0.296200
      3 C8          -2.2640    -0.4910     0.0120 cf         1 FHC       0.088300
      4 C9          -2.3950     0.9730    -0.4130 c          1 FHC       0.702200
      5 O3          -1.3930     1.6300    -0.6670 o          1 FHC      -0.695000
      6 O2          -3.5230     1.4440    -0.5180 o          1 FHC      -0.695000
      7 F1          -3.4140    -1.1990     0.1760 f          1 FHC      -0.202500
      8 C6           1.2330    -1.5130    -0.6020 ca         1 FHC      -0.060500
      9 C5           2.5920    -1.1520    -0.6350 ca         1 FHC      -0.181500
     10 C4           3.0460    -0.0580     0.1160 ca         1 FHC       0.101100
     11 O1           4.3630     0.2860     0.0810 oh         1 FHC      -0.554100
     12 C3           2.1460     0.6740     0.9060 ca         1 FHC      -0.181500
     13 C2           0.7870     0.3140     0.9390 ca         1 FHC      -0.060500
     14 HC7         -1.2210    -2.2480     0.4790 ha         1 FHC       0.150000
     15 HC6          0.8850    -2.3650    -1.1810 ha         1 FHC       0.116000
     16 HC5          3.2890    -1.7240    -1.2420 ha         1 FHC       0.101000
     17 HO1          4.4950     1.0660     0.6620 ho         1 FHC       0.450000
     18 HC3          2.4910     1.5180     1.4990 ha         1 FHC       0.101000
     19 HC2          0.0950     0.8750     1.5620 ha         1 FHC       0.116000
@<TRIPOS>BOND
     1     1     2 1   
     2     1     8 ar  
     3     1    13 ar  
     4     2     3 2   
     5     2    14 1   
     6     3     4 1   
     7     3     7 1   
     8     4     5 1   
     9     4     6 1   
    10     8     9 ar  
    11     8    15 1   
    12     9    10 ar  
    13     9    16 1   
    14    10    11 1   
    15    10    12 ar  
    16    11    17 1   
    17    12    13 ar  
    18    12    18 1   
    19    13    19 1   
@<TRIPOS>SUBSTRUCTURE
     1 FHC         1 TEMP              0 ****  ****    0 ROOT
