@<TRIPOS>MOLECULE
FHE
   52    54     1     0     0
SMALL
bcc


@<TRIPOS>ATOM
      1 N1          -4.3800    -2.4500    -1.9950 n8         1 FHE      -0.879800
      2 N3          -4.9070     0.4060    -0.5410 n          1 FHE      -0.368300
      3 C4           4.3530     0.1800     0.0860 c3         1 FHE       0.182700
      4 C8           5.8470     0.3770     0.1370 ca         1 FHE      -0.010300
      5 C10          7.7450     1.8380     0.5310 ca         1 FHE      -0.092000
      6 C13          6.7710    -0.6330    -0.1540 ca         1 FHE      -0.171200
      7 CB1         -3.2640    -2.8530     0.1580 c          1 FHE       0.607100
      8 CG1         -3.2480    -2.6640     1.6500 c3         1 FHE      -0.203100
      9 OG1         -2.5160    -3.6080    -0.4110 o          1 FHE      -0.533100
     10 CG2         -0.3900     1.8420    -0.1150 ca         1 FHE      -0.075800
     11 CD1          0.1870     0.5670    -0.0730 ca         1 FHE      -0.070500
     12 CD2          0.4740     2.9480    -0.0760 ca         1 FHE      -0.070500
     13 CE1          1.5590     0.3990    -0.0060 ca         1 FHE      -0.199000
     14 CE2          1.8420     2.7940    -0.0110 ca         1 FHE      -0.199000
     15 CZ           2.3980     1.5130     0.0200 ca         1 FHE       0.131100
     16 OH           3.7390     1.4510     0.0700 os         1 FHE      -0.339900
     17 C1          -3.9740    -0.5970    -0.4350 cc         1 FHE       0.468900
     18 C11          8.6340     0.8180     0.2350 ca         1 FHE      -0.140000
     19 C12          8.1430    -0.4240    -0.1190 ca         1 FHE      -0.074000
     20 C2          -4.2460     1.6070    -0.4050 c          1 FHE       0.677700
     21 C3          -6.8590    -0.1260     0.9220 c          1 FHE       0.921600
     22 C9           6.3760     1.6200     0.4760 ca         1 FHE      -0.116000
     23 CA1         -4.3100    -2.0500    -0.6080 c3         1 FHE       0.036200
     24 CA2         -2.8260     1.2030    -0.2910 cd         1 FHE       0.024400
     25 CA3         -6.3370     0.2530    -0.4840 c3         1 FHE      -0.062000
     26 N14          6.3320    -1.9750    -0.5050 no         1 FHE       0.309200
     27 N2          -2.7580    -0.1830    -0.3100 nd         1 FHE      -0.663300
     28 O15          5.2740    -2.3630    -0.0650 o          1 FHE      -0.208500
     29 O16          7.0530    -2.6430    -1.2070 o          1 FHE      -0.208500
     30 O3          -6.0090    -0.3730     1.7940 o          1 FHE      -0.820300
     31 OXT         -8.0970    -0.1540     1.0230 o          1 FHE      -0.820300
     32 H1          -5.1480    -1.9840    -2.4610 hn         1 FHE       0.351800
     33 H2          -3.5340    -2.1860    -2.4850 hn         1 FHE       0.351800
     34 H4           4.0620    -0.3810    -0.8060 h1         1 FHE       0.071200
     35 H5           4.0220    -0.3870     0.9620 h1         1 FHE       0.071200
     36 H6           8.1130     2.8170     0.8090 ha         1 FHE       0.140000
     37 H7          -2.1080     3.1320    -0.2120 ha         1 FHE       0.134000
     38 H9          -3.4600    -3.6200     2.1320 hc         1 FHE       0.071367
     39 H10         -2.2590    -2.3430     1.9740 hc         1 FHE       0.071367
     40 H11         -3.9850    -1.9360     1.9830 hc         1 FHE       0.071367
     41 H12         -0.4480    -0.3070    -0.0970 ha         1 FHE       0.153500
     42 H13          0.0610     3.9490    -0.1030 ha         1 FHE       0.153500
     43 H14          1.9540    -0.6080     0.0210 ha         1 FHE       0.136500
     44 H15          2.4910     3.6590     0.0140 ha         1 FHE       0.136500
     45 H16          9.7020     0.9830     0.2790 ha         1 FHE       0.142000
     46 H17          8.8250    -1.2300    -0.3500 ha         1 FHE       0.164000
     47 H18          5.7130     2.4410     0.7000 ha         1 FHE       0.165000
     48 H19         -5.2740    -2.2610    -0.1350 h1         1 FHE       0.123700
     49 H21         -6.7870     1.1920    -0.8060 h1         1 FHE       0.048200
     50 H22         -6.6570    -0.5000    -1.2090 h1         1 FHE       0.048200
     51 CB2         -1.8130     2.0870    -0.2030 ce         1 FHE      -0.044200
     52 O2          -4.7570     2.7100    -0.3910 o          1 FHE      -0.591500
@<TRIPOS>BOND
     1     1    23 1   
     2     1    32 1   
     3     1    33 1   
     4     2    17 1   
     5     2    20 1   
     6     2    25 1   
     7     3     4 1   
     8     3    16 1   
     9     3    34 1   
    10     3    35 1   
    11     4     6 ar  
    12     4    22 ar  
    13     5    18 ar  
    14     5    22 ar  
    15     5    36 1   
    16     6    19 ar  
    17     6    26 1   
    18     7     8 1   
    19     7     9 2   
    20     7    23 1   
    21     8    38 1   
    22     8    39 1   
    23     8    40 1   
    24    10    11 ar  
    25    10    12 ar  
    26    10    51 1   
    27    11    13 ar  
    28    11    41 1   
    29    12    14 ar  
    30    12    42 1   
    31    13    15 ar  
    32    13    43 1   
    33    14    15 ar  
    34    14    44 1   
    35    15    16 1   
    36    17    23 1   
    37    17    27 2   
    38    18    19 ar  
    39    18    45 1   
    40    19    46 1   
    41    20    24 1   
    42    20    52 2   
    43    21    25 1   
    44    21    30 1   
    45    21    31 1   
    46    22    47 1   
    47    23    48 1   
    48    24    27 1   
    49    24    51 2   
    50    25    49 1   
    51    25    50 1   
    52    26    28 1   
    53    26    29 1   
    54    37    51 1   
@<TRIPOS>SUBSTRUCTURE
     1 FHE         1 TEMP              0 ****  ****    0 ROOT
