@<TRIPOS>MOLECULE
FHE
   52    54     1     0     0
SMALL
No Charge or Current Charge


@<TRIPOS>ATOM
      1 N1          -4.4860    -2.2990    -2.3720 n8         1 FHE      -0.990200
      2 N3          -4.9410     0.4260    -0.3210 n          1 FHE      -0.301300
      3 C4           4.4740     0.2540     0.3570 c3         1 FHE       0.205900
      4 C8           5.9990     0.4250     0.2520 ca         1 FHE      -0.010300
      5 C10          7.9470     1.9170     0.2900 ca         1 FHE      -0.074000
      6 C13          6.8690    -0.6760    -0.0010 ca         1 FHE      -0.171200
      7 CB1         -3.3170    -2.9300    -0.1160 c          1 FHE       0.607100
      8 CG1         -3.5460    -3.0990     1.3860 c3         1 FHE      -0.203100
      9 OG1         -2.3920    -3.5110    -0.6790 o          1 FHE      -0.533100
     10 CG2         -0.3790     1.9210    -0.1440 ca         1 FHE      -0.075800
     11 CD1          0.1810     0.7120     0.3200 ca         1 FHE      -0.052500
     12 CD2          0.4820     2.9540    -0.5650 ca         1 FHE      -0.052500
     13 CE1          1.5760     0.5320     0.3450 ca         1 FHE      -0.181000
     14 CE2          1.8760     2.7740    -0.5410 ca         1 FHE      -0.181000
     15 CZ           2.4300     1.5670    -0.0900 ca         1 FHE       0.131100
     16 OH           3.8040     1.4510    -0.0880 os         1 FHE      -0.363100
     17 C1          -3.9820    -0.5450    -0.5760 cc         1 FHE       0.468900
     18 C11          8.7940     0.8360     0.0150 ca         1 FHE      -0.122000
     19 C12          8.2610    -0.4540    -0.1280 ca         1 FHE      -0.056000
     20 C2          -4.3300     1.6390    -0.1100 c          1 FHE       0.535200
     21 C3          -6.9250    -0.1510     1.1670 c          1 FHE       0.711000
     22 C9           6.5630     1.7120     0.4090 ca         1 FHE      -0.098000
     23 CA1         -4.3160    -2.0030    -0.8770 c3         1 FHE       0.036200
     24 CA2         -2.9110     1.2700    -0.2880 cd         1 FHE       0.024400
     25 CA3         -6.4160     0.2390    -0.2370 c3         1 FHE      -0.062000
     26 N14          6.3620    -2.0760    -0.1270 no         1 FHE       0.689200
     27 N2          -2.7270    -0.0800    -0.5790 nd         1 FHE      -0.663300
     28 O15          5.5400    -2.4750     0.7080 o          1 FHE      -0.398500
     29 O16          6.9050    -2.8130    -0.9600 o          1 FHE      -0.398500
     30 O3          -6.4740    -1.1640     1.6800 o          1 FHE      -0.715000
     31 OXT         -7.7320     0.5850     1.7170 o          1 FHE      -0.715000
     32 H1          -5.1250    -1.6150    -2.7990 hn         1 FHE       0.407000
     33 H2          -3.5920    -2.1280    -2.8540 hn         1 FHE       0.407000
     34 H4           4.1510    -0.5910    -0.2650 h1         1 FHE       0.071200
     35 H5           4.2150     0.0310     1.4000 h1         1 FHE       0.071200
     36 H6           8.3610     2.9160     0.4090 ha         1 FHE       0.122000
     37 H7          -2.1510     3.1910    -0.0120 ha         1 FHE       0.184000
     38 H9          -2.7990    -3.7480     1.8570 hc         1 FHE       0.071367
     39 H10         -3.5810    -2.1110     1.8590 hc         1 FHE       0.071367
     40 H11         -4.5630    -3.4710     1.5510 hc         1 FHE       0.071367
     41 H12         -0.4600    -0.0900     0.6760 ha         1 FHE       0.135500
     42 H13          0.0700     3.8970    -0.9190 ha         1 FHE       0.135500
     43 H14          1.9690    -0.4120     0.7090 ha         1 FHE       0.118500
     44 H15          2.5300     3.5760    -0.8730 ha         1 FHE       0.118500
     45 H16          9.8670     0.9940    -0.0780 ha         1 FHE       0.124000
     46 H17          8.9360    -1.2860    -0.3260 ha         1 FHE       0.146000
     47 H18          5.9260     2.5680     0.6210 ha         1 FHE       0.147000
     48 H19         -5.2810    -2.2100    -0.3970 h1         1 FHE       0.123700
     49 H21         -6.9130     1.1690    -0.5390 h1         1 FHE       0.048200
     50 H22         -6.7300    -0.5410    -0.9410 h1         1 FHE       0.048200
     51 CB2         -1.8560     2.1530    -0.1710 ce         1 FHE      -0.094200
     52 O2          -4.8470     2.7170     0.1530 o          1 FHE      -0.516000
@<TRIPOS>BOND
     1     1    23 1   
     2     1    32 1   
     3     1    33 1   
     4     2    17 1   
     5     2    20 1   
     6     2    25 1   
     7     3     4 1   
     8     3    16 1   
     9     3    34 1   
    10     3    35 1   
    11     4     6 ar  
    12     4    22 ar  
    13     5    18 ar  
    14     5    22 ar  
    15     5    36 1   
    16     6    19 ar  
    17     6    26 1   
    18     7     8 1   
    19     7     9 2   
    20     7    23 1   
    21     8    38 1   
    22     8    39 1   
    23     8    40 1   
    24    10    11 ar  
    25    10    12 ar  
    26    10    51 1   
    27    11    13 ar  
    28    11    41 1   
    29    12    14 ar  
    30    12    42 1   
    31    13    15 ar  
    32    13    43 1   
    33    14    15 ar  
    34    14    44 1   
    35    15    16 1   
    36    17    23 1   
    37    17    27 2   
    38    18    19 ar  
    39    18    45 1   
    40    19    46 1   
    41    20    24 1   
    42    20    52 2   
    43    21    25 1   
    44    21    30 1   
    45    21    31 1   
    46    22    47 1   
    47    23    48 1   
    48    24    27 1   
    49    24    51 2   
    50    25    49 1   
    51    25    50 1   
    52    26    28 1   
    53    26    29 1   
    54    37    51 1   
@<TRIPOS>SUBSTRUCTURE
     1 FHE         1 TEMP              0 ****  ****    0 ROOT
