@<TRIPOS>MOLECULE
FHF
   55    55     1     0     0
SMALL
abcg2


@<TRIPOS>ATOM
      1 C          -17.0560   144.1070    44.3620 c          1 FHF       0.563100
      2 N          -16.6070   145.6780    46.2050 ns         1 FHF      -0.507900
      3 O          -16.0760   144.5140    43.7750 o          1 FHF      -0.517100
      4 CA         -17.6140   144.8440    45.5840 c3         1 FHF       0.037700
      5 CB         -18.8430   145.7360    45.2390 c3         1 FHF      -0.070700
      6 CAA        -16.4400   139.5990    47.6140 c3         1 FHF      -0.088100
      7 OAD        -19.1970   140.0460    40.6000 o          1 FHF      -0.619100
      8 OAG        -20.0870   141.8990    42.2400 oh         1 FHF      -0.459100
      9 CAI        -18.3960   140.8970    41.0010 c          1 FHF       0.585900
     10 CAJ        -10.6800   145.7280    48.7380 ca         1 FHF      -0.119000
     11 CAK        -11.5130   144.6170    48.6940 ca         1 FHF      -0.094000
     12 CAL        -11.1350   146.9420    48.2280 ca         1 FHF      -0.114000
     13 CAM        -12.7910   144.6940    48.1490 ca         1 FHF      -0.117000
     14 CAN        -16.3060   139.9720    46.1390 c3         1 FHF      -0.070400
     15 CAP        -16.9700   141.5940    44.2990 c3         1 FHF      -0.064400
     16 CAQ        -17.9490   142.9410    42.3690 c3         1 FHF       0.144000
     17 CAT        -15.4550   145.1550    46.7060 c          1 FHF       0.668100
     18 CAV        -12.3990   147.0000    47.6880 ca         1 FHF       0.096000
     19 CAW        -13.2630   145.9020    47.6240 ca         1 FHF      -0.028000
     20 CAY        -17.7690   142.8470    43.8940 c3         1 FHF      -0.179700
     21 CG1        -20.1220   144.9440    44.9710 c3         1 FHF      -0.093100
     22 CG2        -18.5670   146.7200    44.0990 c3         1 FHF      -0.093100
     23 HN         -16.6590   146.6690    46.0360 hn         1 FHF       0.314500
     24 HA         -17.9430   144.0870    46.2990 h1         1 FHF       0.088700
     25 HB         -19.0060   146.3120    46.1540 hc         1 FHF       0.057700
     26 HAA        -15.8660   138.7010    47.8530 hc         1 FHF       0.032700
     27 HAAA       -16.0790   140.4080    48.2550 hc         1 FHF       0.032700
     28 HAAB       -17.4840   139.4090    47.8760 hc         1 FHF       0.032700
     29 HOAG       -20.4580   141.1150    41.7850 ho         1 FHF       0.478000
     30 HAI        -17.3390   140.9340    40.7180 h5         1 FHF       0.041200
     31 HAJ         -9.6880   145.6610    49.1640 ha         1 FHF       0.120000
     32 HAK        -11.1710   143.6700    49.0920 ha         1 FHF       0.120000
     33 HAL        -10.5240   147.8350    48.2420 ha         1 FHF       0.131000
     34 HAM        -13.4290   143.8270    48.1210 ha         1 FHF       0.153000
     35 HAN        -15.2510   140.1290    45.8950 hc         1 FHF       0.037200
     36 HANA       -16.6460   139.1380    45.5160 hc         1 FHF       0.037200
     37 HAP        -15.9200   141.7410    44.0290 hc         1 FHF       0.048700
     38 HAPA       -17.3350   140.7580    43.6960 hc         1 FHF       0.048700
     39 HAQ        -18.4160   143.8890    42.0960 h1         1 FHF       0.066200
     40 HAQA       -16.9820   142.8850    41.8710 h1         1 FHF       0.066200
     41 HAY        -18.7500   142.7920    44.3630 hc         1 FHF       0.082700
     42 HG1        -20.9730   145.6280    44.9740 hc         1 FHF       0.042700
     43 HG1A       -20.1050   144.4550    43.9970 hc         1 FHF       0.042700
     44 HG1B       -20.2950   144.1860    45.7370 hc         1 FHF       0.042700
     45 HG2        -19.4060   147.4110    44.0030 hc         1 FHF       0.042700
     46 HG2A       -17.6660   147.3150    44.2630 hc         1 FHF       0.042700
     47 HG2B       -18.4530   146.1990    43.1460 hc         1 FHF       0.042700
     48 NBA        -18.7530   141.8730    41.8350 n          1 FHF      -0.294300
     49 OAE        -15.2830   143.9470    46.8440 o          1 FHF      -0.628100
     50 CAO        -17.0940   141.2290    45.7750 c3         1 FHF      -0.083400
     51 NAR        -14.5210   146.1080    47.0600 ns         1 FHF      -0.157000
     52 FAH        -12.8520   148.1850    47.1890 f          1 FHF      -0.197000
     53 HAO        -18.1520   141.0760    46.0160 hc         1 FHF       0.049200
     54 HAOA       -16.7440   142.0580    46.3940 hc         1 FHF       0.049200
     55 HNAR       -14.7250   147.0650    46.8150 hn         1 FHF       0.159000
@<TRIPOS>BOND
     1     1     3 2   
     2     1     4 1   
     3     1    20 1   
     4     2     4 1   
     5     2    17 1   
     6     2    23 1   
     7     4     5 1   
     8     4    24 1   
     9     5    21 1   
    10     5    22 1   
    11     5    25 1   
    12     6    14 1   
    13     6    26 1   
    14     6    27 1   
    15     6    28 1   
    16     7     9 2   
    17     8    29 1   
    18     8    48 1   
    19     9    30 1   
    20     9    48 1   
    21    10    11 ar  
    22    10    12 ar  
    23    10    31 1   
    24    11    13 ar  
    25    11    32 1   
    26    12    18 ar  
    27    12    33 1   
    28    13    19 ar  
    29    13    34 1   
    30    14    35 1   
    31    14    36 1   
    32    14    50 1   
    33    15    20 1   
    34    15    37 1   
    35    15    38 1   
    36    15    50 1   
    37    16    20 1   
    38    16    39 1   
    39    16    40 1   
    40    16    48 1   
    41    17    49 2   
    42    17    51 1   
    43    18    19 ar  
    44    18    52 1   
    45    19    51 1   
    46    20    41 1   
    47    21    42 1   
    48    21    43 1   
    49    21    44 1   
    50    22    45 1   
    51    22    46 1   
    52    22    47 1   
    53    50    53 1   
    54    50    54 1   
    55    51    55 1   
@<TRIPOS>SUBSTRUCTURE
     1 FHF         1 TEMP              0 ****  ****    0 ROOT
