@<TRIPOS>MOLECULE
FHF
   55    55     1     0     0
SMALL
No Charge or Current Charge


@<TRIPOS>ATOM
      1 C          -17.1610   143.8470    43.8230 c          1 FHF       0.563100
      2 N          -15.9010   145.0250    45.6150 ns         1 FHF      -0.507900
      3 O          -16.3560   144.2010    42.9670 o          1 FHF      -0.517100
      4 CA         -17.2470   144.5530    45.2110 c3         1 FHF       0.037700
      5 CB         -18.3020   145.7020    45.2810 c3         1 FHF      -0.070700
      6 CAA        -14.9840   139.5360    46.3980 c3         1 FHF      -0.088100
      7 OAD        -20.6170   139.8210    40.9960 o          1 FHF      -0.619100
      8 OAG        -21.1350   141.9680    42.7720 oh         1 FHF      -0.459100
      9 CAI        -19.7360   140.6580    41.1780 c          1 FHF       0.585900
     10 CAJ        -11.5800   146.6610    50.2090 ca         1 FHF      -0.119000
     11 CAK        -12.8730   146.1940    50.4940 ca         1 FHF      -0.094000
     12 CAL        -11.1660   146.7950    48.8740 ca         1 FHF      -0.114000
     13 CAM        -13.7550   145.8600    49.4490 ca         1 FHF      -0.117000
     14 CAN        -15.7410   139.7390    45.0720 c3         1 FHF      -0.070400
     15 CAP        -17.2430   141.2940    43.6690 c3         1 FHF      -0.064400
     16 CAQ        -18.8360   142.7700    42.2660 c3         1 FHF       0.144000
     17 CAT        -15.4840   145.1950    46.9150 c          1 FHF       0.668100
     18 CAV        -12.0450   146.4620    47.8310 ca         1 FHF       0.096000
     19 CAW        -13.3480   145.9910    48.1010 ca         1 FHF      -0.028000
     20 CAY        -18.0630   142.6160    43.5990 c3         1 FHF      -0.179700
     21 CG1        -19.7590   145.1910    45.2070 c3         1 FHF      -0.093100
     22 CG2        -18.0500   146.8240    44.2440 c3         1 FHF      -0.093100
     23 HN         -15.2380   145.2540    44.8830 hn         1 FHF       0.314500
     24 HA         -17.5460   143.7800    45.9310 h1         1 FHF       0.088700
     25 HB         -18.1990   146.1630    46.2720 hc         1 FHF       0.057700
     26 HAA        -14.4700   138.5670    46.4000 hc         1 FHF       0.032700
     27 HAAA       -14.2330   140.3220    46.5400 hc         1 FHF       0.032700
     28 HAAB       -15.6760   139.5590    47.2480 hc         1 FHF       0.032700
     29 HOAG       -21.0880   141.3970    43.5740 ho         1 FHF       0.478000
     30 HAI        -18.7490   140.6380    40.6770 h5         1 FHF       0.041200
     31 HAJ        -10.9010   146.9180    51.0200 ha         1 FHF       0.120000
     32 HAK        -13.1950   146.0890    51.5290 ha         1 FHF       0.120000
     33 HAL        -10.1660   147.1560    48.6460 ha         1 FHF       0.131000
     34 HAM        -14.7460   145.5030    49.7100 ha         1 FHF       0.153000
     35 HAN        -15.0280   139.6750    44.2400 hc         1 FHF       0.037200
     36 HANA       -16.4580   138.9180    44.9420 hc         1 FHF       0.037200
     37 HAP        -16.5210   141.2700    42.8420 hc         1 FHF       0.048700
     38 HAPA       -17.9190   140.4430    43.5210 hc         1 FHF       0.048700
     39 HAQ        -19.3120   143.7590    42.2320 h1         1 FHF       0.066200
     40 HAQA       -18.1290   142.7270    41.4260 h1         1 FHF       0.066200
     41 HAY        -18.7900   142.5820    44.4190 hc         1 FHF       0.082700
     42 HG1        -20.4620   146.0060    45.4190 hc         1 FHF       0.042700
     43 HG1A       -19.9970   144.7970    44.2130 hc         1 FHF       0.042700
     44 HG1B       -19.9340   144.3990    45.9460 hc         1 FHF       0.042700
     45 HG2        -18.7530   147.6520    44.3960 hc         1 FHF       0.042700
     46 HG2A       -17.0340   147.2270    44.3390 hc         1 FHF       0.042700
     47 HG2B       -18.1800   146.4550    43.2200 hc         1 FHF       0.042700
     48 NBA        -19.8880   141.7500    42.0690 n          1 FHF      -0.294300
     49 OAE        -16.2040   144.9390    47.8680 o          1 FHF      -0.628100
     50 CAO        -16.4880   141.0880    45.0040 c3         1 FHF      -0.083400
     51 NAR        -14.1870   145.6720    46.9950 ns         1 FHF      -0.157000
     52 FAH        -11.6260   146.5990    46.5510 f          1 FHF      -0.197000
     53 HAO        -17.2020   141.1450    45.8360 hc         1 FHF       0.049200
     54 HAOA       -15.7610   141.8970    45.1480 hc         1 FHF       0.049200
     55 HNAR       -13.7440   145.8260    46.0990 hn         1 FHF       0.159000
@<TRIPOS>BOND
     1     1     3 2   
     2     1     4 1   
     3     1    20 1   
     4     2     4 1   
     5     2    17 1   
     6     2    23 1   
     7     4     5 1   
     8     4    24 1   
     9     5    21 1   
    10     5    22 1   
    11     5    25 1   
    12     6    14 1   
    13     6    26 1   
    14     6    27 1   
    15     6    28 1   
    16     7     9 2   
    17     8    29 1   
    18     8    48 1   
    19     9    30 1   
    20     9    48 1   
    21    10    11 ar  
    22    10    12 ar  
    23    10    31 1   
    24    11    13 ar  
    25    11    32 1   
    26    12    18 ar  
    27    12    33 1   
    28    13    19 ar  
    29    13    34 1   
    30    14    35 1   
    31    14    36 1   
    32    14    50 1   
    33    15    20 1   
    34    15    37 1   
    35    15    38 1   
    36    15    50 1   
    37    16    20 1   
    38    16    39 1   
    39    16    40 1   
    40    16    48 1   
    41    17    49 2   
    42    17    51 1   
    43    18    19 ar  
    44    18    52 1   
    45    19    51 1   
    46    20    41 1   
    47    21    42 1   
    48    21    43 1   
    49    21    44 1   
    50    22    45 1   
    51    22    46 1   
    52    22    47 1   
    53    50    53 1   
    54    50    54 1   
    55    51    55 1   
@<TRIPOS>SUBSTRUCTURE
     1 FHF         1 TEMP              0 ****  ****    0 ROOT
