@<TRIPOS>MOLECULE
FHG
   45    47     1     0     0
SMALL
No Charge or Current Charge


@<TRIPOS>ATOM
      1 P1           1.2300    -0.9080    -1.3560 p5         1 FHG       1.449800
      2 O1A          1.9900     0.1020    -2.1480 o          1 FHG      -0.871000
      3 O2A          1.5670    -2.3140    -1.7290 o          1 FHG      -0.871000
      4 O3A          1.2690    -0.6480     0.1940 os         1 FHG      -0.709800
      5 O5          -0.3480    -0.6470    -1.5730 os         1 FHG      -0.537400
      6 P2           2.7030    -0.4730     0.8470 p5         1 FHG       1.512400
      7 O1B          3.7970    -1.1690     0.1000 o          1 FHG      -0.861500
      8 O2B          2.5940    -1.0180     2.2400 o          1 FHG      -0.861500
      9 C3B          2.7290     1.3540     0.8990 c3         1 FHG      -0.450700
     10 F2B          1.9910     1.9160     1.9170 f          1 FHG      -0.302000
     11 P3           4.5050     1.7120     0.9440 p5         1 FHG       1.315500
     12 O1G          5.1180     1.5110    -0.4000 o          1 FHG      -0.921167
     13 O2G          4.6300     3.1640     1.2690 o          1 FHG      -0.921167
     14 O3G          5.2160     0.9280     1.9940 o          1 FHG      -0.921167
     15 C5          -1.3330    -1.6850    -1.4130 c3         1 FHG       0.238600
     16 C4          -1.4340    -2.1920     0.0600 c5         1 FHG       0.130300
     17 O4          -1.9380    -1.1480     0.9370 os         1 FHG      -0.387000
     18 C1          -3.3230    -1.3980     1.2420 c5         1 FHG       0.323300
     19 N9          -4.2030    -0.7560     0.2570 na         1 FHG      -0.212500
     20 C9          -4.6380     0.5440     0.2970 cc         1 FHG       0.162400
     21 N3          -4.2940     1.5300     1.2000 nc         1 FHG      -0.662100
     22 C2          -4.8770     2.6780     0.9550 cd         1 FHG       0.672800
     23 N2          -4.5890     3.6640     1.7930 nv         1 FHG      -1.032200
     24 N1          -5.7380     2.9600    -0.0460 ns         1 FHG      -0.451400
     25 C6          -6.1360     2.0440    -0.9750 c          1 FHG       0.536500
     26 O6          -6.9220     2.3280    -1.8700 o          1 FHG      -0.585000
     27 C7          -5.5080     0.7070    -0.7530 cd         1 FHG       0.057500
     28 N7          -5.6510    -0.4940    -1.4390 nd         1 FHG      -0.624000
     29 C8          -4.8740    -1.3570    -0.7940 cc         1 FHG       0.372400
     30 C10         -3.3610    -2.9400     1.3750 c5         1 FHG      -0.169400
     31 C3          -2.4200    -3.4030     0.2280 c5         1 FHG       0.123300
     32 O3          -1.7550    -4.6160     0.5830 oh         1 FHG      -0.693000
     33 H3           2.3560     1.7230    -0.0570 h1         1 FHG       0.067700
     34 H6          -2.3130    -1.3150    -1.7350 h1         1 FHG       0.009700
     35 H7          -1.0880    -2.5370    -2.0600 h1         1 FHG       0.009700
     36 H8          -0.4350    -2.4840     0.4070 h1         1 FHG       0.110700
     37 H9          -3.5800    -0.9310     2.2010 h2         1 FHG       0.073700
     38 H10         -5.2760     4.3990     1.9050 hn         1 FHG       0.478000
     39 H11         -4.0990     3.3810     2.6320 hn         1 FHG       0.478000
     40 H12         -6.1110     3.8900    -0.1440 hn         1 FHG       0.302500
     41 H13         -4.7630    -2.4050    -1.0390 h5         1 FHG       0.028100
     42 H14         -2.9750    -3.2370     2.3570 hc         1 FHG       0.040200
     43 H15         -4.3730    -3.3510     1.2900 hc         1 FHG       0.040200
     44 H16         -2.9890    -3.5540    -0.7000 h1         1 FHG       0.041700
     45 H17         -2.4540    -5.2820     0.7760 ho         1 FHG       0.468000
@<TRIPOS>BOND
     1     1     2 1   
     2     1     3 1   
     3     1     4 1   
     4     1     5 1   
     5     4     6 1   
     6     5    15 1   
     7     6     7 1   
     8     6     8 1   
     9     6     9 1   
    10     9    10 1   
    11     9    11 1   
    12     9    33 1   
    13    11    12 1   
    14    11    13 1   
    15    11    14 1   
    16    15    16 1   
    17    15    34 1   
    18    15    35 1   
    19    16    17 1   
    20    16    31 1   
    21    16    36 1   
    22    17    18 1   
    23    18    19 1   
    24    18    30 1   
    25    18    37 1   
    26    19    20 1   
    27    19    29 1   
    28    20    21 1   
    29    20    27 2   
    30    21    22 2   
    31    22    23 1   
    32    22    24 1   
    33    23    38 1   
    34    23    39 1   
    35    24    25 1   
    36    24    40 1   
    37    25    26 2   
    38    25    27 1   
    39    27    28 1   
    40    28    29 2   
    41    29    41 1   
    42    30    31 1   
    43    30    42 1   
    44    30    43 1   
    45    31    32 1   
    46    31    44 1   
    47    32    45 1   
@<TRIPOS>SUBSTRUCTURE
     1 FHG         1 TEMP              0 ****  ****    0 ROOT
