@<TRIPOS>MOLECULE
FHG
   45    47     1     0     0
SMALL
abcg2


@<TRIPOS>ATOM
      1 P1           1.3690    -1.5140     0.2410 p5         1 FHG       1.449800
      2 O1A          1.8650    -1.1580    -1.1300 o          1 FHG      -0.871000
      3 O2A          1.6110    -2.8970     0.7690 o          1 FHG      -0.871000
      4 O3A          1.7690    -0.4050     1.3500 os         1 FHG      -0.709800
      5 O5          -0.2540    -1.1970     0.3190 os         1 FHG      -0.537400
      6 P2           3.1300     0.5900     1.3850 p5         1 FHG       1.512400
      7 O1B          4.3110    -0.2150     0.9280 o          1 FHG      -0.861500
      8 O2B          3.0860     1.1570     2.7760 o          1 FHG      -0.861500
      9 C3B          2.6880     1.8530     0.1430 c3         1 FHG      -0.450700
     10 F2B          1.5720     2.5500     0.6740 f          1 FHG      -0.302000
     11 P3           4.0380     3.0650    -0.3230 p5         1 FHG       1.315500
     12 O1G          4.9140     2.2630    -1.2860 o          1 FHG      -0.921167
     13 O2G          3.2810     4.2190    -0.9870 o          1 FHG      -0.921167
     14 O3G          4.7320     3.4520     0.9860 o          1 FHG      -0.921167
     15 C5          -1.1160    -2.0060    -0.4410 c3         1 FHG       0.238600
     16 C4          -2.0270    -2.8170     0.4570 c5         1 FHG       0.130300
     17 O4          -2.8050    -1.9690     1.3000 os         1 FHG      -0.387000
     18 C1          -4.1540    -2.0370     0.9510 c5         1 FHG       0.323300
     19 N9          -4.4920    -0.9800    -0.0000 na         1 FHG      -0.212500
     20 C9          -4.4810     0.3490     0.3000 cc         1 FHG       0.162400
     21 N3          -4.2600     0.8860     1.5070 nc         1 FHG      -0.662100
     22 C2          -4.3050     2.1940     1.5040 cd         1 FHG       0.672800
     23 N2          -4.0530     2.8780     2.6310 nv         1 FHG      -1.032200
     24 N1          -4.5590     2.9300     0.3820 ns         1 FHG      -0.451400
     25 C6          -4.8110     2.4220    -0.8980 c          1 FHG       0.536500
     26 O6          -5.0300     3.1720    -1.8340 o          1 FHG      -0.585000
     27 C7          -4.7590     0.9980    -0.8880 cd         1 FHG       0.057500
     28 N7          -4.9410     0.0940    -1.9030 nd         1 FHG      -0.624000
     29 C8          -4.7710    -1.0640    -1.3430 cc         1 FHG       0.372400
     30 C10         -4.3430    -3.4290     0.3780 c5         1 FHG      -0.169400
     31 C3          -3.0160    -3.6810    -0.3410 c5         1 FHG       0.123300
     32 O3          -2.5880    -5.0180    -0.3350 oh         1 FHG      -0.693000
     33 H3           2.3410     1.3450    -0.7610 h1         1 FHG       0.067700
     34 H6          -1.7140    -1.3660    -1.1020 h1         1 FHG       0.009700
     35 H7          -0.5830    -2.7090    -1.0930 h1         1 FHG       0.009700
     36 H8          -1.4180    -3.4590     1.1030 h1         1 FHG       0.110700
     37 H9          -4.7500    -1.8590     1.8460 h2         1 FHG       0.073700
     38 H10         -4.3170     3.8440     2.7150 hn         1 FHG       0.478000
     39 H11         -4.0130     2.3540     3.4890 hn         1 FHG       0.478000
     40 H12         -4.5550     3.9400     0.4590 hn         1 FHG       0.302500
     41 H13         -4.8500    -2.0100    -1.8560 h5         1 FHG       0.028100
     42 H14         -4.4380    -4.1250     1.2130 hc         1 FHG       0.040200
     43 H15         -5.2250    -3.5480    -0.2520 hc         1 FHG       0.040200
     44 H16         -3.0800    -3.3150    -1.3750 h1         1 FHG       0.041700
     45 H17         -3.1010    -5.5030    -0.9870 ho         1 FHG       0.468000
@<TRIPOS>BOND
     1     1     2 1   
     2     1     3 1   
     3     1     4 1   
     4     1     5 1   
     5     4     6 1   
     6     5    15 1   
     7     6     7 1   
     8     6     8 1   
     9     6     9 1   
    10     9    10 1   
    11     9    11 1   
    12     9    33 1   
    13    11    12 1   
    14    11    13 1   
    15    11    14 1   
    16    15    16 1   
    17    15    34 1   
    18    15    35 1   
    19    16    17 1   
    20    16    31 1   
    21    16    36 1   
    22    17    18 1   
    23    18    19 1   
    24    18    30 1   
    25    18    37 1   
    26    19    20 1   
    27    19    29 1   
    28    20    21 1   
    29    20    27 2   
    30    21    22 2   
    31    22    23 1   
    32    22    24 1   
    33    23    38 1   
    34    23    39 1   
    35    24    25 1   
    36    24    40 1   
    37    25    26 2   
    38    25    27 1   
    39    27    28 1   
    40    28    29 2   
    41    29    41 1   
    42    30    31 1   
    43    30    42 1   
    44    30    43 1   
    45    31    32 1   
    46    31    44 1   
    47    32    45 1   
@<TRIPOS>SUBSTRUCTURE
     1 FHG         1 TEMP              0 ****  ****    0 ROOT
