@<TRIPOS>MOLECULE
FHH
   38    39     1     0     0
SMALL
No Charge or Current Charge


@<TRIPOS>ATOM
      1 C           -0.5610     1.4060     0.3700 c          1 FHH       0.624300
      2 O           -0.5910     2.6210     0.5150 o          1 FHH      -0.635100
      3 C1           1.9470     1.3600     0.5040 c3         1 FHH       0.112000
      4 C10         -4.1510    -0.8800    -0.1040 cc         1 FHH       0.070400
      5 C11         -5.6710     0.8840     0.0310 c5         1 FHH      -0.013200
      6 C12         -1.7180    -0.8990     0.0280 c          1 FHH       0.566200
      7 C13         -6.4240    -0.3260    -0.6190 c5         1 FHH      -0.076400
      8 C14         -5.4900    -1.5210    -0.2670 c5         1 FHH      -0.054200
      9 C2           3.0790     0.3170     0.4460 c3         1 FHH      -0.088400
     10 C3           4.4870     0.9440     0.6010 c3         1 FHH      -0.137400
     11 C4           5.5840    -0.1210     0.5300 c          1 FHH       0.590100
     12 C6           7.0990    -1.2500    -0.9670 c3         1 FHH       0.152900
     13 C7          -1.7830     0.5800     0.2030 cc         1 FHH      -0.309400
     14 C8          -3.0110     1.2400     0.2140 cd         1 FHH      -0.001000
     15 C9          -4.2150     0.4720     0.0540 cd         1 FHH      -0.216200
     16 N11         -2.9320    -1.5150    -0.1130 ns         1 FHH      -0.333100
     17 NA           0.6350     0.7360     0.3560 ns         1 FHH      -0.503900
     18 O2           5.9460    -0.7860     1.4910 o          1 FHH      -0.485000
     19 O4           6.0720    -0.2650    -0.7430 os         1 FHH      -0.447100
     20 H1           1.9820     1.8880     1.4660 h1         1 FHH       0.045700
     21 H2           2.0820     2.0960    -0.3000 h1         1 FHH       0.045700
     22 H3          -5.8370     1.8080    -0.5350 hc         1 FHH       0.057700
     23 H4          -6.0390     1.0700     1.0460 hc         1 FHH       0.057700
     24 H5          -7.4440    -0.4500    -0.2390 hc         1 FHH       0.054200
     25 H6          -5.4930    -2.2870    -1.0510 hc         1 FHH       0.067200
     26 H7           2.9250    -0.4250     1.2400 hc         1 FHH       0.063200
     27 H8           3.0260    -0.2190    -0.5100 hc         1 FHH       0.063200
     28 H9           4.6240     1.6550    -0.2230 hc         1 FHH       0.073700
     29 H10          4.5470     1.4570     1.5680 hc         1 FHH       0.073700
     30 H11          6.7420    -2.2550    -0.7070 h1         1 FHH       0.048033
     31 H12          7.3960    -1.2580    -2.0230 h1         1 FHH       0.048033
     32 H13          7.9900    -1.0300    -0.3640 h1         1 FHH       0.048033
     33 H15         -3.0760     2.3190     0.3430 ha         1 FHH       0.218000
     34 H16          0.5750    -0.2710     0.2310 hn         1 FHH       0.355500
     35 H17         -6.4900    -0.1970    -1.7050 hc         1 FHH       0.054200
     36 H18         -5.7980    -2.0060     0.6660 hc         1 FHH       0.067200
     37 H14         -2.8940    -2.5190    -0.2330 hn         1 FHH       0.332500
     38 O13         -0.6960    -1.5680     0.0040 o          1 FHH      -0.588000
@<TRIPOS>BOND
     1     1     2 2   
     2     1    13 1   
     3     1    17 1   
     4     3     9 1   
     5     3    17 1   
     6     3    20 1   
     7     3    21 1   
     8     4     8 1   
     9     4    15 2   
    10     4    16 1   
    11     5     7 1   
    12     5    15 1   
    13     5    22 1   
    14     5    23 1   
    15     6    13 1   
    16     6    16 1   
    17     6    38 2   
    18     7     8 1   
    19     7    24 1   
    20     7    35 1   
    21     8    25 1   
    22     8    36 1   
    23     9    10 1   
    24     9    26 1   
    25     9    27 1   
    26    10    11 1   
    27    10    28 1   
    28    10    29 1   
    29    11    18 2   
    30    11    19 1   
    31    12    19 1   
    32    12    30 1   
    33    12    31 1   
    34    12    32 1   
    35    13    14 2   
    36    14    15 1   
    37    14    33 1   
    38    16    37 1   
    39    17    34 1   
@<TRIPOS>SUBSTRUCTURE
     1 FHH         1 TEMP              0 ****  ****    0 ROOT
