@<TRIPOS>MOLECULE
FHH
   38    39     1     0     0
SMALL
abcg2


@<TRIPOS>ATOM
      1 C           -0.5540     1.1850     0.0920 c          1 FHH       0.624300
      2 O           -0.5530     2.4130     0.1190 o          1 FHH      -0.635100
      3 C1           1.8820     1.0880     0.0520 c3         1 FHH       0.112000
      4 C10         -4.2900    -0.8400     0.0660 cc         1 FHH       0.070400
      5 C11         -5.6510     1.0790     0.1550 c5         1 FHH      -0.013200
      6 C12         -1.8850    -1.0210     0.0500 c          1 FHH       0.566200
      7 C13         -6.5140    -0.1340    -0.2470 c5         1 FHH      -0.076400
      8 C14         -5.6780    -1.3840     0.0880 c5         1 FHH      -0.054200
      9 C2           2.9670     0.0240     0.0490 c3         1 FHH      -0.088400
     10 C3           4.3460     0.6610     0.0280 c3         1 FHH      -0.137400
     11 C4           5.4640    -0.3460     0.0140 c          1 FHH       0.590100
     12 C6           7.8060    -0.5900    -0.0520 c3         1 FHH       0.152900
     13 C7          -1.8380     0.4230     0.0880 cc         1 FHH      -0.309400
     14 C8          -3.0080     1.1500     0.1170 cd         1 FHH      -0.001000
     15 C9          -4.2560     0.5240     0.1010 cd         1 FHH      -0.216200
     16 N11         -3.1590    -1.5590     0.0460 ns         1 FHH      -0.333100
     17 NA           0.5760     0.4700     0.0640 ns         1 FHH      -0.503900
     18 O2           5.3220    -1.5420     0.0440 o          1 FHH      -0.485000
     19 O4           6.6500     0.2470    -0.0350 os         1 FHH      -0.447100
     20 H1           1.9990     1.7360     0.9260 h1         1 FHH       0.045700
     21 H2           1.9880     1.7300    -0.8280 h1         1 FHH       0.045700
     22 H3          -5.7990     1.9290    -0.5120 hc         1 FHH       0.057700
     23 H4          -5.8900     1.4210     1.1670 hc         1 FHH       0.057700
     24 H5          -7.4820    -0.1430     0.2510 hc         1 FHH       0.054200
     25 H6          -5.8260    -2.2040    -0.6150 hc         1 FHH       0.067200
     26 H7           2.8610    -0.6100     0.9320 hc         1 FHH       0.063200
     27 H8           2.8420    -0.6230    -0.8240 hc         1 FHH       0.063200
     28 H9           4.4570     1.3110    -0.8460 hc         1 FHH       0.073700
     29 H10          4.4820     1.3130     0.8960 hc         1 FHH       0.073700
     30 H11          7.8250    -1.2260    -0.9360 h1         1 FHH       0.048033
     31 H12          8.6610     0.0800    -0.0740 h1         1 FHH       0.048033
     32 H13          7.8620    -1.2130     0.8400 h1         1 FHH       0.048033
     33 H15         -2.9440     2.2310     0.1480 ha         1 FHH       0.218000
     34 H16          0.4910    -0.5400     0.0360 hn         1 FHH       0.355500
     35 H17         -6.6990    -0.1060    -1.3220 hc         1 FHH       0.054200
     36 H18         -5.9020    -1.7700     1.0880 hc         1 FHH       0.067200
     37 H14         -3.2130    -2.5700     0.0170 hn         1 FHH       0.332500
     38 O13         -0.9180    -1.7900     0.0190 o          1 FHH      -0.588000
@<TRIPOS>BOND
     1     1     2 2   
     2     1    13 1   
     3     1    17 1   
     4     3     9 1   
     5     3    17 1   
     6     3    20 1   
     7     3    21 1   
     8     4     8 1   
     9     4    15 2   
    10     4    16 1   
    11     5     7 1   
    12     5    15 1   
    13     5    22 1   
    14     5    23 1   
    15     6    13 1   
    16     6    16 1   
    17     6    38 2   
    18     7     8 1   
    19     7    24 1   
    20     7    35 1   
    21     8    25 1   
    22     8    36 1   
    23     9    10 1   
    24     9    26 1   
    25     9    27 1   
    26    10    11 1   
    27    10    28 1   
    28    10    29 1   
    29    11    18 2   
    30    11    19 1   
    31    12    19 1   
    32    12    30 1   
    33    12    31 1   
    34    12    32 1   
    35    13    14 2   
    36    14    15 1   
    37    14    33 1   
    38    16    37 1   
    39    17    34 1   
@<TRIPOS>SUBSTRUCTURE
     1 FHH         1 TEMP              0 ****  ****    0 ROOT
