@<TRIPOS>MOLECULE
FHJ
   58    61     1     0     0
SMALL
abcg2


@<TRIPOS>ATOM
      1 C13         -3.2010     3.2470    -1.2100 ca         1 FHJ      -0.070500
      2 C15         -2.2010     3.2290     0.9580 ca         1 FHJ      -0.070500
      3 C20          1.8930     0.2710    -0.1850 c5         1 FHJ      -0.139700
      4 C21          0.9500    -0.9700    -0.2230 c5         1 FHJ       0.190200
      5 C22          1.5510    -2.0320     0.6750 c2         1 FHJ      -0.204200
      6 C28          3.1080     2.6800     2.3010 c3         1 FHJ       0.153900
      7 C01         -2.8310    -1.6950    -0.0620 ca         1 FHJ      -0.090300
      8 C02         -3.3310    -1.5380     1.2290 ca         1 FHJ      -0.101000
      9 C03         -4.6630    -1.2270     1.4460 ca         1 FHJ      -0.106000
     10 C04         -5.5470    -1.0630     0.3790 ca         1 FHJ      -0.071300
     11 C05         -5.0480    -1.2280    -0.9080 ca         1 FHJ      -0.106000
     12 C06         -3.7110    -1.5390    -1.1250 ca         1 FHJ      -0.101000
     13 C07         -6.9860    -0.7110     0.6250 c3         1 FHJ      -0.046800
     14 C08         -1.3710    -1.9640    -0.2870 c3         1 FHJ      -0.052100
     15 C09         -0.5370    -0.6880    -0.0880 c3         1 FHJ       0.253500
     16 C11         -1.6570     1.4750    -0.6190 ca         1 FHJ       0.318000
     17 C12         -2.5210     2.0870    -1.5370 ca         1 FHJ      -0.179500
     18 C14         -3.0540     3.8300     0.0440 ca         1 FHJ      -0.158000
     19 C16         -1.5040     2.0730     0.6380 ca         1 FHJ      -0.179500
     20 C18          2.6460    -1.7160    -1.2730 c5         1 FHJ       0.182500
     21 C19          3.1410    -0.2610    -0.9300 c5         1 FHJ      -0.150700
     22 C23          2.6040    -2.5010     0.0150 c2         1 FHJ      -0.256200
     23 C25          2.0990     0.8790     1.1740 c          1 FHJ       0.622100
     24 C29          4.4350    -0.2850    -0.1670 c          1 FHJ       0.604100
     25 C32          6.7730    -0.3730    -0.4180 c3         1 FHJ       0.150900
     26 N10         -0.9530     0.3520    -1.0000 nu         1 FHJ      -0.960200
     27 O24          1.2770    -1.4680    -1.5160 os         1 FHJ      -0.429000
     28 O26          1.6090     0.4740     2.1990 o          1 FHJ      -0.488000
     29 O27          2.8190     1.9870     1.0890 os         1 FHJ      -0.439100
     30 O30          4.5340    -0.3560     1.0320 o          1 FHJ      -0.479000
     31 O31          5.4690    -0.2790    -0.9940 os         1 FHJ      -0.440100
     32 H1          -3.8620     3.6940    -1.9420 ha         1 FHJ       0.107000
     33 H2          -2.0620     3.6670     1.9390 ha         1 FHJ       0.107000
     34 H3           1.4410     1.0470    -0.8100 hc         1 FHJ       0.113700
     35 H4           1.2190    -2.2770     1.6720 ha         1 FHJ       0.221000
     36 H6           3.7240     3.5290     2.0200 h1         1 FHJ       0.048700
     37 H7           2.1980     3.0390     2.7820 h1         1 FHJ       0.048700
     38 H8           3.6590     2.0490     2.9980 h1         1 FHJ       0.048700
     39 H9          -2.6680    -1.6580     2.0790 ha         1 FHJ       0.109000
     40 H10         -5.0240    -1.1110     2.4620 ha         1 FHJ       0.110500
     41 H11         -5.7120    -1.1140    -1.7570 ha         1 FHJ       0.110500
     42 H12         -3.3540    -1.6620    -2.1410 ha         1 FHJ       0.109000
     43 H13         -7.0800     0.2900     1.0520 hc         1 FHJ       0.041700
     44 H14         -7.5670    -0.7300    -0.2960 hc         1 FHJ       0.041700
     45 H15         -7.4520    -1.4010     1.3290 hc         1 FHJ       0.041700
     46 H16         -1.0140    -2.7350     0.4010 hc         1 FHJ       0.062700
     47 H17         -1.2090    -2.3490    -1.2960 hc         1 FHJ       0.062700
     48 H18         -0.7020    -0.3450     0.9350 h1         1 FHJ       0.085700
     49 H19         -2.6630     1.6400    -2.5140 ha         1 FHJ       0.112500
     50 H20         -3.5890     4.7360     0.2990 ha         1 FHJ       0.111000
     51 H21         -0.8280     1.6530     1.3730 ha         1 FHJ       0.112500
     52 H22          3.1430    -2.1640    -2.1310 h1         1 FHJ       0.106700
     53 H23          3.2840     0.2810    -1.8650 hc         1 FHJ       0.098700
     54 H24          3.3460    -3.2140     0.3440 ha         1 FHJ       0.212000
     55 H26          7.4710    -0.3200    -1.2480 h1         1 FHJ       0.049367
     56 H27          6.9650     0.4510     0.2700 h1         1 FHJ       0.049367
     57 H28          6.9060    -1.3180     0.1080 h1         1 FHJ       0.049367
     58 H29         -1.1790     0.0190    -1.9250 hn         1 FHJ       0.471000
@<TRIPOS>BOND
     1     1    17 ar  
     2     1    18 ar  
     3     1    32 1   
     4     2    18 ar  
     5     2    19 ar  
     6     2    33 1   
     7     3     4 1   
     8     3    21 1   
     9     3    23 1   
    10     3    34 1   
    11     4     5 1   
    12     4    15 1   
    13     4    27 1   
    14     5    22 2   
    15     5    35 1   
    16     6    29 1   
    17     6    36 1   
    18     6    37 1   
    19     6    38 1   
    20     7     8 ar  
    21     7    12 ar  
    22     7    14 1   
    23     8     9 ar  
    24     8    39 1   
    25     9    10 ar  
    26     9    40 1   
    27    10    11 ar  
    28    10    13 1   
    29    11    12 ar  
    30    11    41 1   
    31    12    42 1   
    32    13    43 1   
    33    13    44 1   
    34    13    45 1   
    35    14    15 1   
    36    14    46 1   
    37    14    47 1   
    38    15    26 1   
    39    15    48 1   
    40    16    17 ar  
    41    16    19 ar  
    42    16    26 1   
    43    17    49 1   
    44    18    50 1   
    45    19    51 1   
    46    20    21 1   
    47    20    22 1   
    48    20    27 1   
    49    20    52 1   
    50    21    24 1   
    51    21    53 1   
    52    22    54 1   
    53    23    28 2   
    54    23    29 1   
    55    24    30 2   
    56    24    31 1   
    57    25    31 1   
    58    25    55 1   
    59    25    56 1   
    60    25    57 1   
    61    26    58 1   
@<TRIPOS>SUBSTRUCTURE
     1 FHJ         1 TEMP              0 ****  ****    0 ROOT
