@<TRIPOS>MOLECULE
FHJ
   58    61     1     0     0
SMALL
No Charge or Current Charge


@<TRIPOS>ATOM
      1 C13         -3.6450     2.7300    -1.9280 ca         1 FHJ      -0.070500
      2 C15         -3.3940     2.7640     0.4930 ca         1 FHJ      -0.070500
      3 C20          2.1940     0.1500    -0.1850 c5         1 FHJ      -0.139700
      4 C21          1.0880    -0.9580    -0.3180 c5         1 FHJ       0.190200
      5 C22          1.5360    -2.1970     0.4450 c2         1 FHJ      -0.204200
      6 C28          3.3630     2.4020     2.5660 c3         1 FHJ       0.153900
      7 C01         -2.8570    -1.3260     0.0450 ca         1 FHJ      -0.090300
      8 C02         -3.1850    -1.1910     1.4080 ca         1 FHJ      -0.101000
      9 C03         -4.4900    -0.8370     1.7920 ca         1 FHJ      -0.106000
     10 C04         -5.4830    -0.6180     0.8190 ca         1 FHJ      -0.071300
     11 C05         -5.1580    -0.7620    -0.5420 ca         1 FHJ      -0.106000
     12 C06         -3.8540    -1.1180    -0.9270 ca         1 FHJ      -0.101000
     13 C07         -6.8900    -0.2170     1.2340 c3         1 FHJ      -0.046800
     14 C08         -1.4280    -1.6680    -0.3710 c3         1 FHJ      -0.052100
     15 C09         -0.4080    -0.5150    -0.1310 c3         1 FHJ       0.253500
     16 C11         -1.8310     1.4870    -0.8760 ca         1 FHJ       0.318000
     17 C12         -2.5170     1.8970    -2.0300 ca         1 FHJ      -0.179500
     18 C14         -4.0840     3.1600    -0.6650 ca         1 FHJ      -0.158000
     19 C16         -2.2650     1.9330     0.3850 ca         1 FHJ      -0.179500
     20 C18          2.7540    -1.8570    -1.4580 c5         1 FHJ       0.182500
     21 C19          3.4020    -0.5100    -0.9930 c5         1 FHJ      -0.150700
     22 C23          2.5310    -2.7450    -0.2530 c2         1 FHJ      -0.256200
     23 C25          2.5070     0.5500     1.2790 c          1 FHJ       0.622100
     24 C29          4.7170    -0.7130    -0.1890 c          1 FHJ       0.604100
     25 C32          7.0240    -0.0030    -0.1630 c3         1 FHJ       0.150900
     26 N10         -0.7290     0.6430    -1.0050 nu         1 FHJ      -0.960200
     27 O24          1.3940    -1.4230    -1.6500 os         1 FHJ      -0.429000
     28 O26          2.4680    -0.1640     2.2730 o          1 FHJ      -0.488000
     29 O27          2.9650     1.8430     1.3010 os         1 FHJ      -0.439100
     30 O30          4.8760    -1.3740     0.8280 o          1 FHJ      -0.479000
     31 O31          5.7180     0.0230    -0.7700 os         1 FHJ      -0.440100
     32 H1          -4.1780     3.0380    -2.8250 ha         1 FHJ       0.107000
     33 H2          -3.7320     3.0990     1.4710 ha         1 FHJ       0.107000
     34 H3           1.9250     1.0720    -0.7110 hc         1 FHJ       0.113700
     35 H4           1.1300    -2.5700     1.3880 ha         1 FHJ       0.221000
     36 H6           3.7010     3.4380     2.4350 h1         1 FHJ       0.048700
     37 H7           2.5240     2.4050     3.2740 h1         1 FHJ       0.048700
     38 H8           4.1890     1.8280     3.0050 h1         1 FHJ       0.048700
     39 H9          -2.4260    -1.3490     2.1710 ha         1 FHJ       0.109000
     40 H10         -4.7260    -0.7260     2.8480 ha         1 FHJ       0.110500
     41 H11         -5.9140    -0.5900    -1.3050 ha         1 FHJ       0.110500
     42 H12         -3.6150    -1.2110    -1.9840 ha         1 FHJ       0.109000
     43 H13         -6.9890     0.8740     1.2700 hc         1 FHJ       0.041700
     44 H14         -7.6380    -0.5980     0.5280 hc         1 FHJ       0.041700
     45 H15         -7.1430    -0.6100     2.2250 hc         1 FHJ       0.041700
     46 H16         -1.1090    -2.5520     0.1910 hc         1 FHJ       0.062700
     47 H17         -1.3910    -1.9600    -1.4270 hc         1 FHJ       0.062700
     48 H18         -0.4940    -0.2130     0.9220 h1         1 FHJ       0.085700
     49 H19         -2.1860     1.5600    -3.0080 ha         1 FHJ       0.112500
     50 H20         -4.9590     3.8020    -0.5830 ha         1 FHJ       0.111000
     51 H21         -1.7370     1.6340     1.2840 ha         1 FHJ       0.112500
     52 H22          3.1830    -2.3330    -2.3520 h1         1 FHJ       0.106700
     53 H23          3.6370     0.1030    -1.8690 hc         1 FHJ       0.098700
     54 H24          3.0880    -3.6460     0.0110 ha         1 FHJ       0.212000
     55 H26          7.7220     0.6250    -0.7300 h1         1 FHJ       0.049367
     56 H27          6.9840     0.3770     0.8660 h1         1 FHJ       0.049367
     57 H28          7.4250    -1.0250    -0.1420 h1         1 FHJ       0.049367
     58 H29         -0.4070     0.5300    -1.9650 hn         1 FHJ       0.471000
@<TRIPOS>BOND
     1     1    17 ar  
     2     1    18 ar  
     3     1    32 1   
     4     2    18 ar  
     5     2    19 ar  
     6     2    33 1   
     7     3     4 1   
     8     3    21 1   
     9     3    23 1   
    10     3    34 1   
    11     4     5 1   
    12     4    15 1   
    13     4    27 1   
    14     5    22 2   
    15     5    35 1   
    16     6    29 1   
    17     6    36 1   
    18     6    37 1   
    19     6    38 1   
    20     7     8 ar  
    21     7    12 ar  
    22     7    14 1   
    23     8     9 ar  
    24     8    39 1   
    25     9    10 ar  
    26     9    40 1   
    27    10    11 ar  
    28    10    13 1   
    29    11    12 ar  
    30    11    41 1   
    31    12    42 1   
    32    13    43 1   
    33    13    44 1   
    34    13    45 1   
    35    14    15 1   
    36    14    46 1   
    37    14    47 1   
    38    15    26 1   
    39    15    48 1   
    40    16    17 ar  
    41    16    19 ar  
    42    16    26 1   
    43    17    49 1   
    44    18    50 1   
    45    19    51 1   
    46    20    21 1   
    47    20    22 1   
    48    20    27 1   
    49    20    52 1   
    50    21    24 1   
    51    21    53 1   
    52    22    54 1   
    53    23    28 2   
    54    23    29 1   
    55    24    30 2   
    56    24    31 1   
    57    25    31 1   
    58    25    55 1   
    59    25    56 1   
    60    25    57 1   
    61    26    58 1   
@<TRIPOS>SUBSTRUCTURE
     1 FHJ         1 TEMP              0 ****  ****    0 ROOT
