@<TRIPOS>MOLECULE
FHK
   43    46     1     0     0
SMALL
No Charge or Current Charge


@<TRIPOS>ATOM
      1 O6          -4.9050     3.8200    -2.6140 o          1 FHK      -0.714000
      2 O5          -4.2640     4.3400    -0.6300 o          1 FHK      -0.714000
      3 C21         -4.4780     3.5150    -1.5090 c          1 FHK       0.711600
      4 C20          5.7380     1.6410    -1.1790 ca         1 FHK      -0.047000
      5 C19          6.9470     2.0240    -0.5570 ca         1 FHK      -0.101500
      6 C18          7.1840     1.7220     0.8070 ca         1 FHK      -0.101500
      7 C17          6.2160     1.0320     1.5690 ca         1 FHK      -0.047000
      8 C16          3.8350    -0.0640     1.4620 c          1 FHK       0.591100
      9 C15          5.0230     0.6620     0.9310 ca         1 FHK      -0.140600
     10 C14          4.7920     0.9570    -0.4020 ca         1 FHK      -0.140600
     11 C13          3.4450     0.4340    -0.7700 c          1 FHK       0.591100
     12 N2           2.9330    -0.1640     0.3920 n          1 FHK      -0.321600
     13 C12         -0.4500    -1.1910     1.6720 ca         1 FHK      -0.001500
     14 C11          0.8100    -0.5750     1.5880 ca         1 FHK      -0.121500
     15 C10          1.6460    -0.7970     0.4760 ca         1 FHK       0.094600
     16 C9           1.2010    -1.6500    -0.5540 ca         1 FHK      -0.121500
     17 C8          -0.0580    -2.2700    -0.4760 ca         1 FHK      -0.001500
     18 C7          -0.8880    -2.0420     0.6380 ca         1 FHK      -0.296500
     19 O2          -2.4120    -4.1870     0.1860 o          1 FHK      -0.548500
     20 O1          -3.1610    -2.5330     1.9990 o          1 FHK      -0.548500
     21 S1          -2.5030    -2.8270     0.7220 sy         1 FHK       1.133600
     22 C6          -4.1810    -0.2990    -1.9160 ca         1 FHK      -0.132000
     23 C5          -3.6830    -0.6950    -0.6640 ca         1 FHK       0.171000
     24 C4          -3.4510     0.2860     0.3170 ca         1 FHK      -0.132000
     25 C3          -3.7050     1.6430     0.0460 ca         1 FHK      -0.084000
     26 C2          -4.2020     2.0490    -1.2140 ca         1 FHK      -0.121600
     27 C1          -4.4380     1.0550    -2.1920 ca         1 FHK      -0.084000
     28 H14          5.5480     1.8700    -2.2260 ha         1 FHK       0.138000
     29 H13          7.7020     2.5560    -1.1310 ha         1 FHK       0.118000
     30 H12          8.1200     2.0230     1.2710 ha         1 FHK       0.118000
     31 H11          6.3910     0.7960     2.6170 ha         1 FHK       0.138000
     32 H10         -1.0790    -1.0010     2.5410 ha         1 FHK       0.141500
     33 H9           1.1260     0.0890     2.3880 ha         1 FHK       0.127000
     34 H8           1.8320    -1.8470    -1.4160 ha         1 FHK       0.127000
     35 H7          -0.3840    -2.9250    -1.2830 ha         1 FHK       0.141500
     36 H1          -3.5280    -2.6880    -1.2210 hn         1 FHK       0.474000
     37 H6          -4.3710    -1.0430    -2.6850 ha         1 FHK       0.104500
     38 H5          -3.0790     0.0130     1.2990 ha         1 FHK       0.104500
     39 H4          -3.5150     2.3790     0.8240 ha         1 FHK       0.135000
     40 H3          -4.8220     1.3300    -3.1720 ha         1 FHK       0.135000
     41 O3           3.6930    -0.5010     2.5960 o          1 FHK      -0.467000
     42 N1          -3.4410    -2.0510    -0.4420 nu         1 FHK      -0.842100
     43 O4           2.8970     0.5300    -1.8580 o          1 FHK      -0.467000
@<TRIPOS>BOND
     1     1     3 1   
     2     2     3 1   
     3     3    26 1   
     4     4     5 ar  
     5     4    10 ar  
     6     4    28 1   
     7     5     6 ar  
     8     5    29 1   
     9     6     7 ar  
    10     6    30 1   
    11     7     9 ar  
    12     7    31 1   
    13     8     9 1   
    14     8    12 1   
    15     8    41 2   
    16     9    10 ar  
    17    10    11 1   
    18    11    12 1   
    19    11    43 2   
    20    12    15 1   
    21    13    14 ar  
    22    13    18 ar  
    23    13    32 1   
    24    14    15 ar  
    25    14    33 1   
    26    15    16 ar  
    27    16    17 ar  
    28    16    34 1   
    29    17    18 ar  
    30    17    35 1   
    31    18    21 1   
    32    19    21 2   
    33    20    21 2   
    34    21    42 1   
    35    22    23 ar  
    36    22    27 ar  
    37    22    37 1   
    38    23    24 ar  
    39    23    42 1   
    40    24    25 ar  
    41    24    38 1   
    42    25    26 ar  
    43    25    39 1   
    44    26    27 ar  
    45    27    40 1   
    46    36    42 1   
@<TRIPOS>SUBSTRUCTURE
     1 FHK         1 TEMP              0 ****  ****    0 ROOT
