@<TRIPOS>MOLECULE
FHK
   43    46     1     0     0
SMALL
abcg2


@<TRIPOS>ATOM
      1 O6          -3.3000     4.1560    -1.6250 o          1 FHK      -0.714000
      2 O5          -4.8610     4.0470    -0.0380 o          1 FHK      -0.714000
      3 C21         -4.0210     3.5490    -0.8100 c          1 FHK       0.711600
      4 C20          5.5550     1.4030    -1.5020 ca         1 FHK      -0.047000
      5 C19          6.7050     1.9130    -0.9040 ca         1 FHK      -0.101500
      6 C18          6.8850     1.8590     0.4760 ca         1 FHK      -0.101500
      7 C17          5.9200     1.2930     1.3070 ca         1 FHK      -0.047000
      8 C16          3.6030     0.1380     1.3020 c          1 FHK       0.591100
      9 C15          4.7870     0.7920     0.7040 ca         1 FHK      -0.140600
     10 C14          4.6090     0.8450    -0.6690 ca         1 FHK      -0.140600
     11 C13          3.3060     0.2250    -0.9940 c          1 FHK       0.591100
     12 N2           2.7640    -0.1740     0.2300 n          1 FHK      -0.321600
     13 C12         -0.7100    -0.8310     1.2720 ca         1 FHK      -0.001500
     14 C11          0.5190    -0.2090     1.1310 ca         1 FHK      -0.121500
     15 C10          1.5110    -0.8080     0.3670 ca         1 FHK       0.094600
     16 C9           1.2840    -2.0240    -0.2650 ca         1 FHK      -0.121500
     17 C8           0.0510    -2.6410    -0.1420 ca         1 FHK      -0.001500
     18 C7          -0.9330    -2.0410     0.6300 ca         1 FHK      -0.296500
     19 O2          -2.4120    -4.2070     0.4440 o          1 FHK      -0.548500
     20 O1          -3.1780    -2.3290     1.9360 o          1 FHK      -0.548500
     21 S1          -2.5370    -2.7880     0.7190 sy         1 FHK       1.133600
     22 C6          -2.7670     0.0110    -1.5010 ca         1 FHK      -0.132000
     23 C5          -3.5450    -0.7420    -0.6270 ca         1 FHK       0.171000
     24 C4          -4.4820    -0.1110     0.1820 ca         1 FHK      -0.132000
     25 C3          -4.6230     1.2660     0.1220 ca         1 FHK      -0.084000
     26 C2          -3.8560     2.0350    -0.7500 ca         1 FHK      -0.121600
     27 C1          -2.9340     1.3850    -1.5670 ca         1 FHK      -0.084000
     28 H14          5.4160     1.4440    -2.5740 ha         1 FHK       0.138000
     29 H13          7.4740     2.3590    -1.5200 ha         1 FHK       0.118000
     30 H12          7.7890     2.2650     0.9080 ha         1 FHK       0.118000
     31 H11          6.0610     1.2520     2.3790 ha         1 FHK       0.138000
     32 H10         -1.4780    -0.3610     1.8700 ha         1 FHK       0.141500
     33 H9           0.6930     0.7460     1.6070 ha         1 FHK       0.127000
     34 H8           2.0660    -2.4980    -0.8420 ha         1 FHK       0.127000
     35 H7          -0.1240    -3.5860    -0.6380 ha         1 FHK       0.141500
     36 H1          -3.1000    -2.5820    -1.4360 hn         1 FHK       0.474000
     37 H6          -2.0300    -0.4780    -2.1280 ha         1 FHK       0.104500
     38 H5          -5.1050    -0.6960     0.8450 ha         1 FHK       0.104500
     39 H4          -5.3540     1.7520     0.7550 ha         1 FHK       0.135000
     40 H3          -2.3300     1.9630    -2.2530 ha         1 FHK       0.135000
     41 O3           3.3710    -0.1030     2.4560 o          1 FHK      -0.467000
     42 N1          -3.3890    -2.1530    -0.5610 nu         1 FHK      -0.842100
     43 O4           2.7820     0.0790    -2.0650 o          1 FHK      -0.467000
@<TRIPOS>BOND
     1     1     3 1   
     2     2     3 1   
     3     3    26 1   
     4     4     5 ar  
     5     4    10 ar  
     6     4    28 1   
     7     5     6 ar  
     8     5    29 1   
     9     6     7 ar  
    10     6    30 1   
    11     7     9 ar  
    12     7    31 1   
    13     8     9 1   
    14     8    12 1   
    15     8    41 2   
    16     9    10 ar  
    17    10    11 1   
    18    11    12 1   
    19    11    43 2   
    20    12    15 1   
    21    13    14 ar  
    22    13    18 ar  
    23    13    32 1   
    24    14    15 ar  
    25    14    33 1   
    26    15    16 ar  
    27    16    17 ar  
    28    16    34 1   
    29    17    18 ar  
    30    17    35 1   
    31    18    21 1   
    32    19    21 2   
    33    20    21 2   
    34    21    42 1   
    35    22    23 ar  
    36    22    27 ar  
    37    22    37 1   
    38    23    24 ar  
    39    23    42 1   
    40    24    25 ar  
    41    24    38 1   
    42    25    26 ar  
    43    25    39 1   
    44    26    27 ar  
    45    27    40 1   
    46    36    42 1   
@<TRIPOS>SUBSTRUCTURE
     1 FHK         1 TEMP              0 ****  ****    0 ROOT
