@<TRIPOS>MOLECULE
FHM
   42    43     1     0     0
SMALL
No Charge or Current Charge


@<TRIPOS>ATOM
      1 C17          6.3530     1.1370     0.6260 ca         1 FHM      -0.143500
      2 C18          7.5610     0.6140     1.1240 ca         1 FHM      -0.113000
      3 C19          7.7230    -0.7760     1.2380 ca         1 FHM       0.138000
      4 F19          8.8820    -1.2800     1.7170 f          1 FHM      -0.177000
      5 C20          6.6880    -1.6440     0.8570 ca         1 FHM      -0.113000
      6 C21          5.4790    -1.1220     0.3580 ca         1 FHM      -0.143500
      7 C16          5.3100     0.2770     0.2420 ca         1 FHM       0.120100
      8 O14          4.1510     0.8480    -0.2400 os         1 FHM      -0.339100
      9 C13          3.0230     0.0560    -0.6710 c3         1 FHM       0.137600
     10 C11          1.9010     1.0170    -1.1590 c3         1 FHM       0.114000
     11 O11          1.6940     2.0250    -0.1360 oh         1 FHM      -0.648000
     12 C12          2.3190     1.7630    -2.4520 c3         1 FHM      -0.083100
     13 C10          0.6070     0.1750    -1.4340 c          1 FHM       0.574100
     14 O10          0.6020    -0.7690    -2.2190 o          1 FHM      -0.563100
     15 N9          -0.5060     0.5760    -0.7050 ns         1 FHM      -0.140000
     16 C6          -1.8460     0.1040    -0.6520 ca         1 FHM       0.020000
     17 C5          -2.7110     0.7100     0.2770 ca         1 FHM      -0.138000
     18 C1          -2.3440    -0.9190    -1.4810 ca         1 FHM      -0.125000
     19 C2          -3.6790    -1.3350    -1.3660 ca         1 FHM      -0.030000
     20 C3          -4.5450    -0.7390    -0.4240 ca         1 FHM      -0.162200
     21 N8          -5.9450    -1.2580    -0.3460 no         1 FHM       0.696200
     22 O2          -6.5400    -1.4610    -1.4120 o          1 FHM      -0.381000
     23 O1          -6.3590    -1.6420     0.7540 o          1 FHM      -0.381000
     24 C4          -4.0660     0.3180     0.4070 ca         1 FHM      -0.106300
     25 C7          -4.9700     1.0530     1.4250 c3         1 FHM       0.368300
     26 F2          -4.4490     2.2340     1.8310 f          1 FHM      -0.100333
     27 F3          -6.1910     1.3430     0.9170 f          1 FHM      -0.100333
     28 F1          -5.1640     0.3170     2.5430 f          1 FHM      -0.100333
     29 H17          6.2240     2.2130     0.5360 ha         1 FHM       0.127500
     30 H18          8.3670     1.2810     1.4210 ha         1 FHM       0.134500
     31 H20          6.8240    -2.7190     0.9490 ha         1 FHM       0.134500
     32 H21          4.6920    -1.8140     0.0700 ha         1 FHM       0.127500
     33 H131         2.6430    -0.5540     0.1590 h1         1 FHM       0.055700
     34 H132         3.3110    -0.6170    -1.4890 h1         1 FHM       0.055700
     35 H11          2.5900     2.2540     0.2040 ho         1 FHM       0.457000
     36 H121         3.2160     2.3730    -2.2870 hc         1 FHM       0.062033
     37 H122         2.5370     1.0540    -3.2600 hc         1 FHM       0.062033
     38 H123         1.5160     2.4280    -2.7920 hc         1 FHM       0.062033
     39 HN9         -0.3180     1.3620    -0.0940 hn         1 FHM       0.180000
     40 H5          -2.3130     1.5030     0.9070 ha         1 FHM       0.142000
     41 H1          -1.7180    -1.4090    -2.2190 ha         1 FHM       0.165000
     42 H2          -4.0380    -2.1370    -2.0090 ha         1 FHM       0.155000
@<TRIPOS>BOND
     1     1     2 ar  
     2     1     7 ar  
     3     1    29 1   
     4     2     3 ar  
     5     2    30 1   
     6     3     4 1   
     7     3     5 ar  
     8     5     6 ar  
     9     5    31 1   
    10     6     7 ar  
    11     6    32 1   
    12     7     8 1   
    13     8     9 1   
    14     9    10 1   
    15     9    33 1   
    16     9    34 1   
    17    10    11 1   
    18    10    12 1   
    19    10    13 1   
    20    11    35 1   
    21    12    36 1   
    22    12    37 1   
    23    12    38 1   
    24    13    14 2   
    25    13    15 1   
    26    15    16 1   
    27    15    39 1   
    28    16    17 ar  
    29    16    18 ar  
    30    17    24 ar  
    31    17    40 1   
    32    18    19 ar  
    33    18    41 1   
    34    19    20 ar  
    35    19    42 1   
    36    20    21 1   
    37    20    24 ar  
    38    21    22 1   
    39    21    23 1   
    40    24    25 1   
    41    25    26 1   
    42    25    27 1   
    43    25    28 1   
@<TRIPOS>SUBSTRUCTURE
     1 FHM         1 TEMP              0 ****  ****    0 ROOT
