@<TRIPOS>MOLECULE
FHM
   42    43     1     0     0
SMALL
abcg2


@<TRIPOS>ATOM
      1 C17          6.4350     1.1190     0.3170 ca         1 FHM      -0.143500
      2 C18          7.6840     0.6100     0.6230 ca         1 FHM      -0.113000
      3 C19          7.8460    -0.7610     0.7160 ca         1 FHM       0.138000
      4 F19          9.0600    -1.2580     1.0160 f          1 FHM      -0.177000
      5 C20          6.7930    -1.6260     0.5100 ca         1 FHM      -0.113000
      6 C21          5.5380    -1.1120     0.2010 ca         1 FHM      -0.143500
      7 C16          5.3530     0.2640     0.1020 ca         1 FHM       0.120100
      8 O14          4.1780     0.8580    -0.1920 os         1 FHM      -0.339100
      9 C13          3.0450     0.0490    -0.4050 c3         1 FHM       0.137600
     10 C11          1.8700     0.9820    -0.7030 c3         1 FHM       0.114000
     11 O11          1.6470     1.8810     0.3560 oh         1 FHM      -0.648000
     12 C12          2.1090     1.8180    -1.9590 c3         1 FHM      -0.083100
     13 C10          0.6330     0.1030    -0.9710 c          1 FHM       0.574100
     14 O10          0.7000    -0.8900    -1.6670 o          1 FHM      -0.563100
     15 N9          -0.5040     0.5750    -0.4010 ns         1 FHM      -0.140000
     16 C6          -1.7930     0.0790    -0.4880 ca         1 FHM       0.020000
     17 C5          -2.7870     0.8180     0.1650 ca         1 FHM      -0.138000
     18 C1          -2.1530    -1.0750    -1.1800 ca         1 FHM      -0.125000
     19 C2          -3.4780    -1.4690    -1.1960 ca         1 FHM      -0.030000
     20 C3          -4.4450    -0.7500    -0.5190 ca         1 FHM      -0.162200
     21 N8          -5.7910    -1.2950    -0.5340 no         1 FHM       0.696200
     22 O2          -6.1680    -1.8210    -1.5530 o          1 FHM      -0.381000
     23 O1          -6.4420    -1.2200     0.4800 o          1 FHM      -0.381000
     24 C4          -4.1080     0.4190     0.1720 ca         1 FHM      -0.106300
     25 C7          -5.1090     1.3080     0.8700 c3         1 FHM       0.368300
     26 F2          -4.6080     2.5310     1.0670 f          1 FHM      -0.100333
     27 F3          -6.2210     1.4680     0.1480 f          1 FHM      -0.100333
     28 F1          -5.4540     0.8430     2.0700 f          1 FHM      -0.100333
     29 H17          6.2920     2.1900     0.2420 ha         1 FHM       0.127500
     30 H18          8.5210     1.2760     0.7890 ha         1 FHM       0.134500
     31 H20          6.9380    -2.6950     0.5860 ha         1 FHM       0.134500
     32 H21          4.7250    -1.8080     0.0430 ha         1 FHM       0.127500
     33 H131         2.8260    -0.5550     0.4870 h1         1 FHM       0.055700
     34 H132         3.2000    -0.6390    -1.2400 h1         1 FHM       0.055700
     35 H11          1.7300     1.4230     1.2020 ho         1 FHM       0.457000
     36 H121         2.9840     2.4530    -1.8370 hc         1 FHM       0.062033
     37 H122         2.2640     1.1790    -2.8270 hc         1 FHM       0.062033
     38 H123         1.2510     2.4610    -2.1620 hc         1 FHM       0.062033
     39 HN9         -0.3860     1.4150     0.1510 hn         1 FHM       0.180000
     40 H5          -2.4970     1.7310     0.6660 ha         1 FHM       0.142000
     41 H1          -1.4240    -1.6700    -1.7020 ha         1 FHM       0.165000
     42 H2          -3.7450    -2.3700    -1.7290 ha         1 FHM       0.155000
@<TRIPOS>BOND
     1     1     2 ar  
     2     1     7 ar  
     3     1    29 1   
     4     2     3 ar  
     5     2    30 1   
     6     3     4 1   
     7     3     5 ar  
     8     5     6 ar  
     9     5    31 1   
    10     6     7 ar  
    11     6    32 1   
    12     7     8 1   
    13     8     9 1   
    14     9    10 1   
    15     9    33 1   
    16     9    34 1   
    17    10    11 1   
    18    10    12 1   
    19    10    13 1   
    20    11    35 1   
    21    12    36 1   
    22    12    37 1   
    23    12    38 1   
    24    13    14 2   
    25    13    15 1   
    26    15    16 1   
    27    15    39 1   
    28    16    17 ar  
    29    16    18 ar  
    30    17    24 ar  
    31    17    40 1   
    32    18    19 ar  
    33    18    41 1   
    34    19    20 ar  
    35    19    42 1   
    36    20    21 1   
    37    20    24 ar  
    38    21    22 1   
    39    21    23 1   
    40    24    25 1   
    41    25    26 1   
    42    25    27 1   
    43    25    28 1   
@<TRIPOS>SUBSTRUCTURE
     1 FHM         1 TEMP              0 ****  ****    0 ROOT
