@<TRIPOS>MOLECULE
FHN
   29    29     1     0     0
SMALL
No Charge or Current Charge


@<TRIPOS>ATOM
      1 O2           2.6730     1.1010     0.5890 oh         1 FHN      -0.701500
      2 C2           1.2820     0.7490     0.6190 c6         1 FHN       0.152800
      3 C3           0.5730     1.3580    -0.6370 c6         1 FHN       0.083300
      4 O3           0.7980     2.7860    -0.6610 oh         1 FHN      -0.649000
      5 C4          -0.9610     1.0570    -0.6420 c6         1 FHN       0.152800
      6 O4          -1.5780     1.7290     0.4720 oh         1 FHN      -0.701500
      7 C5          -1.2160    -0.4880    -0.6300 c6         1 FHN       0.111800
      8 C7          -2.7080    -0.9320    -0.4790 c3         1 FHN       0.147100
      9 O7          -3.1490    -0.9220     0.8970 oh         1 FHN      -0.673000
     10 N           -0.4260    -1.1260     0.5470 ny         1 FHN      -0.816000
     11 C1           1.0850    -0.7970     0.7370 c6         1 FHN       0.111800
     12 C6           1.8480    -1.6370    -0.3320 c3         1 FHN       0.147100
     13 O6           1.5680    -3.0420    -0.1720 oh         1 FHN      -0.673000
     14 H2           2.6810     2.0390     0.2750 ho         1 FHN       0.551000
     15 HA           0.8150     1.1950     1.5110 h1         1 FHN       0.076700
     16 H3           1.0110     0.8990    -1.5360 h1         1 FHN       0.063700
     17 H1           1.3850    -1.1580     1.7270 hx         1 FHN       0.112200
     18 HB           0.6740     3.0940    -1.5900 ho         1 FHN       0.478000
     19 H4          -1.3800     1.4490    -1.5830 h1         1 FHN       0.076700
     20 HC          -1.1150     2.6000     0.5310 ho         1 FHN       0.551000
     21 H5          -0.8220    -0.9300    -1.5530 hx         1 FHN       0.112200
     22 H71C        -3.3330    -0.2750    -1.1000 h1         1 FHN       0.066950
     23 H72C        -2.7980    -1.9470    -0.8900 h1         1 FHN       0.066950
     24 HN1         -0.9620    -0.8660     1.4040 hn         1 FHN       0.524500
     25 HN2         -0.5220    -2.1630     0.5070 hn         1 FHN       0.524500
     26 H7          -4.1240    -1.0650     0.8920 ho         1 FHN       0.484000
     27 H61C         1.5550    -1.2990    -1.3350 h1         1 FHN       0.066950
     28 H62C         2.9240    -1.4460    -0.2190 h1         1 FHN       0.066950
     29 H6           2.1370    -3.5280    -0.8120 ho         1 FHN       0.484000
@<TRIPOS>BOND
     1     1     2 1   
     2     1    14 1   
     3     2     3 1   
     4     2    11 1   
     5     2    15 1   
     6     3     4 1   
     7     3     5 1   
     8     3    16 1   
     9     4    18 1   
    10     5     6 1   
    11     5     7 1   
    12     5    19 1   
    13     6    20 1   
    14     7     8 1   
    15     7    10 1   
    16     7    21 1   
    17     8     9 1   
    18     8    22 1   
    19     8    23 1   
    20     9    26 1   
    21    10    11 1   
    22    10    24 1   
    23    10    25 1   
    24    11    12 1   
    25    11    17 1   
    26    12    13 1   
    27    12    27 1   
    28    12    28 1   
    29    13    29 1   
@<TRIPOS>SUBSTRUCTURE
     1 FHN         1 TEMP              0 ****  ****    0 ROOT
