@<TRIPOS>MOLECULE
FHN
   29    29     1     0     0
SMALL
bcc


@<TRIPOS>ATOM
      1 O2           2.6600     0.9520     0.5020 oh         1 FHN      -0.579300
      2 C2           1.2730     0.7620     0.5580 c6         1 FHN       0.129600
      3 C3           0.5620     1.3520    -0.6580 c6         1 FHN       0.060100
      4 O3           0.7640     2.7450    -0.6010 oh         1 FHN      -0.586800
      5 C4          -0.9360     1.0270    -0.6260 c6         1 FHN       0.129600
      6 O4          -1.5600     1.6240     0.4780 oh         1 FHN      -0.579300
      7 C5          -1.1430    -0.4770    -0.5630 c6         1 FHN       0.140000
      8 C7          -2.5890    -0.9540    -0.5240 c3         1 FHN       0.123900
      9 O7          -3.1590    -0.6850     0.7310 oh         1 FHN      -0.610800
     10 N           -0.4240    -1.0240     0.6280 ny         1 FHN      -0.762000
     11 C1           1.0440    -0.7440     0.6770 c6         1 FHN       0.140000
     12 C6           1.7530    -1.5890    -0.3710 c3         1 FHN       0.123900
     13 O6           1.3170    -2.9140    -0.1790 oh         1 FHN      -0.610800
     14 H2           2.8330     1.8990     0.4940 ho         1 FHN       0.452000
     15 HA           0.8540     1.2320     1.4590 h1         1 FHN       0.076700
     16 H3           0.9920     0.9300    -1.5750 h1         1 FHN       0.063700
     17 H1           1.3630    -1.0770     1.6670 hx         1 FHN       0.112200
     18 HB           0.6410     3.1170    -1.4800 ho         1 FHN       0.439000
     19 H4          -1.3830     1.3630    -1.5740 h1         1 FHN       0.076700
     20 HC          -1.2890     2.5500     0.5030 ho         1 FHN       0.452000
     21 H5          -0.6850    -0.9180    -1.4490 hx         1 FHN       0.112200
     22 H71C        -3.1220    -0.4580    -1.3430 h1         1 FHN       0.066950
     23 H72C        -2.5980    -2.0260    -0.7460 h1         1 FHN       0.066950
     24 HN1         -0.8780    -0.6730     1.4750 hn         1 FHN       0.469300
     25 HN2         -0.5400    -2.0410     0.6590 hn         1 FHN       0.469300
     26 H7          -3.8090    -1.3660     0.9200 ho         1 FHN       0.445000
     27 H61C         1.5370    -1.2380    -1.3860 h1         1 FHN       0.066950
     28 H62C         2.8290    -1.4820    -0.2170 h1         1 FHN       0.066950
     29 H6           1.6100    -3.4500    -0.9220 ho         1 FHN       0.445000
@<TRIPOS>BOND
     1     1     2 1   
     2     1    14 1   
     3     2     3 1   
     4     2    11 1   
     5     2    15 1   
     6     3     4 1   
     7     3     5 1   
     8     3    16 1   
     9     4    18 1   
    10     5     6 1   
    11     5     7 1   
    12     5    19 1   
    13     6    20 1   
    14     7     8 1   
    15     7    10 1   
    16     7    21 1   
    17     8     9 1   
    18     8    22 1   
    19     8    23 1   
    20     9    26 1   
    21    10    11 1   
    22    10    24 1   
    23    10    25 1   
    24    11    12 1   
    25    11    17 1   
    26    12    13 1   
    27    12    27 1   
    28    12    28 1   
    29    13    29 1   
@<TRIPOS>SUBSTRUCTURE
     1 FHN         1 TEMP              0 ****  ****    0 ROOT
