@<TRIPOS>MOLECULE
FHO
   23    22     1     0     0
SMALL
abcg2


@<TRIPOS>ATOM
      1 N          -67.7110   -41.1420    18.5180 n8         1 FHO      -0.978200
      2 CA         -66.2890   -41.4640    18.4930 c3         1 FHO       0.012500
      3 CB         -65.3930   -40.2290    18.6700 c3         1 FHO      -0.085400
      4 CG         -63.9010   -40.5270    18.5540 c3         1 FHO      -0.089400
      5 CD         -63.0100   -39.3130    18.3200 c3         1 FHO       0.109000
      6 NE         -62.9860   -38.3510    19.4020 n          1 FHO      -0.296300
      7 OZ         -64.0170   -37.4560    19.4550 oh         1 FHO      -0.438100
      8 CZ         -61.9640   -38.1880    20.2580 c          1 FHO       0.609900
      9 OH         -61.9060   -37.3610    21.1460 o          1 FHO      -0.603100
     10 C          -65.9740   -42.5010    19.5960 c          1 FHO       0.726000
     11 O          -66.4610   -42.2610    20.7210 o          1 FHO      -0.732000
     12 OXT        -65.2430   -43.4620    19.2870 o          1 FHO      -0.732000
     13 HN1        -67.9490   -40.8640    19.4630 hn         1 FHO       0.373000
     14 HN2        -67.8860   -40.3320    17.9340 hn         1 FHO       0.373000
     15 HA         -66.0580   -41.9070    17.5180 h1         1 FHO       0.043700
     16 HB1C       -65.6740   -39.4890    17.9110 hc         1 FHO       0.017200
     17 HB2C       -65.6260   -39.7840    19.6420 hc         1 FHO       0.017200
     18 HG1C       -63.5440   -41.0580    19.4400 hc         1 FHO       0.064700
     19 HG2C       -63.7370   -41.2020    17.7090 hc         1 FHO       0.064700
     20 HD1C       -61.9820   -39.6450    18.1700 h1         1 FHO       0.041700
     21 HD2C       -63.3070   -38.7890    17.4080 h1         1 FHO       0.041700
     22 HZ         -61.1680   -38.9200    20.0570 h5         1 FHO       0.010200
     23 H2         -64.6540   -37.8000    20.0970 ho         1 FHO       0.450000
@<TRIPOS>BOND
     1     1     2 1   
     2     1    13 1   
     3     1    14 1   
     4     2     3 1   
     5     2    10 1   
     6     2    15 1   
     7     3     4 1   
     8     3    16 1   
     9     3    17 1   
    10     4     5 1   
    11     4    18 1   
    12     4    19 1   
    13     5     6 1   
    14     5    20 1   
    15     5    21 1   
    16     6     7 1   
    17     6     8 1   
    18     7    23 1   
    19     8     9 2   
    20     8    22 1   
    21    10    11 1   
    22    10    12 1   
@<TRIPOS>SUBSTRUCTURE
     1 FHO         1 TEMP              0 ****  ****    0 ROOT
