@<TRIPOS>MOLECULE
FHO
   23    22     1     0     0
SMALL
No Charge or Current Charge


@<TRIPOS>ATOM
      1 N          -67.7230   -41.1410    18.5520 n8         1 FHO      -0.978200
      2 CA         -66.2650   -41.5190    18.5860 c3         1 FHO       0.012500
      3 CB         -65.4030   -40.2270    18.5640 c3         1 FHO      -0.085400
      4 CG         -63.8830   -40.4900    18.4110 c3         1 FHO      -0.089400
      5 CD         -63.0260   -39.2140    18.2480 c3         1 FHO       0.109000
      6 NE         -63.0290   -38.3280    19.4320 n          1 FHO      -0.296300
      7 OZ         -63.9940   -37.2510    19.4280 oh         1 FHO      -0.438100
      8 CZ         -62.0320   -38.4040    20.4360 c          1 FHO       0.609900
      9 OH         -61.9860   -37.6330    21.3910 o          1 FHO      -0.603100
     10 C          -65.8230   -42.5110    19.7450 c          1 FHO       0.726000
     11 O          -66.0240   -42.1820    20.9080 o          1 FHO      -0.732000
     12 OXT        -65.3720   -43.6060    19.4310 o          1 FHO      -0.732000
     13 HN1        -67.9700   -40.7090    19.4510 hn         1 FHO       0.373000
     14 HN2        -67.8610   -40.3870    17.8690 hn         1 FHO       0.373000
     15 HA         -66.0640   -42.0460    17.6420 h1         1 FHO       0.043700
     16 HB1C       -65.7310   -39.5900    17.7320 hc         1 FHO       0.017200
     17 HB2C       -65.5800   -39.6630    19.4870 hc         1 FHO       0.017200
     18 HG1C       -63.5140   -41.0550    19.2760 hc         1 FHO       0.064700
     19 HG2C       -63.7210   -41.1230    17.5300 hc         1 FHO       0.064700
     20 HD1C       -61.9900   -39.5090    18.0360 h1         1 FHO       0.041700
     21 HD2C       -63.3850   -38.6470    17.3790 h1         1 FHO       0.041700
     22 HZ         -61.3120   -39.2280    20.2710 h5         1 FHO       0.010200
     23 H2         -64.7500   -37.5800    19.9650 ho         1 FHO       0.450000
@<TRIPOS>BOND
     1     1     2 1   
     2     1    13 1   
     3     1    14 1   
     4     2     3 1   
     5     2    10 1   
     6     2    15 1   
     7     3     4 1   
     8     3    16 1   
     9     3    17 1   
    10     4     5 1   
    11     4    18 1   
    12     4    19 1   
    13     5     6 1   
    14     5    20 1   
    15     5    21 1   
    16     6     7 1   
    17     6     8 1   
    18     7    23 1   
    19     8     9 2   
    20     8    22 1   
    21    10    11 1   
    22    10    12 1   
@<TRIPOS>SUBSTRUCTURE
     1 FHO         1 TEMP              0 ****  ****    0 ROOT
