@<TRIPOS>MOLECULE
FHP
   45    44     1     0     0
SMALL
No Charge or Current Charge


@<TRIPOS>ATOM
      1 C1           0.6830     0.2530    -4.1560 c3         1 FHP      -0.136500
      2 C2           0.5770     0.2800    -2.6350 c2         1 FHP      -0.039200
      3 C3           1.4090    -0.2950    -1.7410 c2         1 FHP      -0.285400
      4 C4           1.1860    -0.1760    -0.2380 c3         1 FHP       0.013800
      5 C5           0.6380    -1.4700     0.4030 c3         1 FHP      -0.062200
      6 C6           0.3670    -1.3070     1.8890 c2         1 FHP      -0.178200
      7 C7          -0.7640    -0.8690     2.4770 c2         1 FHP      -0.167400
      8 C8          -0.9060    -0.7970     3.9910 c3         1 FHP      -0.021200
      9 C9          -0.7360     0.6320     4.5500 c3         1 FHP      -0.048200
     10 C10         -0.7930     0.6680     6.0670 c2         1 FHP      -0.195200
     11 C11          0.2300     0.5150     6.9300 c2         1 FHP      -0.143400
     12 C12          0.0440     0.6020     8.4340 c3         1 FHP      -0.047900
     13 C13          1.6760     0.2380     6.5430 c3         1 FHP      -0.047900
     14 C14         -2.0180    -0.4170     1.7380 c3         1 FHP      -0.047900
     15 C15          2.6610    -1.0910    -2.0990 c3         1 FHP      -0.005900
     16 O1           1.6260     1.2750    -4.6050 oh         1 FHP      -0.738000
     17 O1A         -0.8090     0.5850    -6.4490 o          1 FHP      -0.904500
     18 O2A         -1.6720    -1.0670    -4.8630 o          1 FHP      -0.904500
     19 O3A         -1.8850     1.3260    -4.3880 o          1 FHP      -0.904500
     20 PA          -1.0280     0.2720    -5.0060 p5         1 FHP       1.265500
     21 H1           1.0660    -0.7320    -4.4540 h1         1 FHP       0.021700
     22 H2          -0.2880     0.8390    -2.2750 ha         1 FHP       0.153000
     23 H41          0.4730     0.6310    -0.0320 hc         1 FHP       0.007200
     24 H42          2.1170     0.1130     0.2650 hc         1 FHP       0.007200
     25 H51          1.3560    -2.2850     0.2540 hc         1 FHP       0.060700
     26 H52         -0.2710    -1.7760    -0.1290 hc         1 FHP       0.060700
     27 H6           1.2110    -1.6080     2.5110 ha         1 FHP       0.141000
     28 H81         -0.1490    -1.4360     4.4640 hc         1 FHP       0.028200
     29 H82         -1.8760    -1.2020     4.3060 hc         1 FHP       0.028200
     30 H91         -1.5200     1.2810     4.1410 hc         1 FHP       0.054700
     31 H92          0.2110     1.0470     4.1860 hc         1 FHP       0.054700
     32 H10         -1.7960     0.8590     6.4520 ha         1 FHP       0.154000
     33 H121         0.3340    -0.3360     8.9230 hc         1 FHP       0.031700
     34 H122         0.6560     1.4050     8.8620 hc         1 FHP       0.031700
     35 H123        -0.9990     0.8040     8.7050 hc         1 FHP       0.031700
     36 H131         1.8130     0.1100     5.4640 hc         1 FHP       0.031700
     37 H132         2.3310     1.0570     6.8620 hc         1 FHP       0.031700
     38 H133         2.0380    -0.6810     7.0200 hc         1 FHP       0.031700
     39 H141        -2.8750    -1.0510     1.9950 hc         1 FHP       0.040033
     40 H142        -2.2820     0.6150     1.9950 hc         1 FHP       0.040033
     41 H143        -1.9070    -0.4500     0.6490 hc         1 FHP       0.040033
     42 H151         2.8680    -1.0930    -3.1740 hc         1 FHP       0.010700
     43 H152         3.5460    -0.6730    -1.6050 hc         1 FHP       0.010700
     44 H153         2.5700    -2.1380    -1.7870 hc         1 FHP       0.010700
     45 HO1          1.4140     1.4500    -5.5550 ho         1 FHP       0.482000
@<TRIPOS>BOND
     1     1     2 1   
     2     1    16 1   
     3     1    20 1   
     4     1    21 1   
     5     2     3 2   
     6     2    22 1   
     7     3     4 1   
     8     3    15 1   
     9     4     5 1   
    10     4    23 1   
    11     4    24 1   
    12     5     6 1   
    13     5    25 1   
    14     5    26 1   
    15     6     7 2   
    16     6    27 1   
    17     7     8 1   
    18     7    14 1   
    19     8     9 1   
    20     8    28 1   
    21     8    29 1   
    22     9    10 1   
    23     9    30 1   
    24     9    31 1   
    25    10    11 2   
    26    10    32 1   
    27    11    12 1   
    28    11    13 1   
    29    12    33 1   
    30    12    34 1   
    31    12    35 1   
    32    13    36 1   
    33    13    37 1   
    34    13    38 1   
    35    14    39 1   
    36    14    40 1   
    37    14    41 1   
    38    15    42 1   
    39    15    43 1   
    40    15    44 1   
    41    16    45 1   
    42    17    20 1   
    43    18    20 1   
    44    19    20 1   
@<TRIPOS>SUBSTRUCTURE
     1 FHP         1 TEMP              0 ****  ****    0 ROOT
