@<TRIPOS>MOLECULE
FHP
   45    44     1     0     0
SMALL
abcg2


@<TRIPOS>ATOM
      1 C1           1.0830     0.6030    -3.9770 c3         1 FHP      -0.136500
      2 C2           1.0660     0.4890    -2.4980 c2         1 FHP      -0.039200
      3 C3           1.4570    -0.5500    -1.7540 c2         1 FHP      -0.285400
      4 C4           1.2870    -0.5310    -0.2600 c3         1 FHP       0.013800
      5 C5           0.2470    -1.5430     0.2490 c3         1 FHP      -0.062200
      6 C6           0.1540    -1.5260     1.7420 c2         1 FHP      -0.178200
      7 C7          -0.8630    -1.0600     2.4690 c2         1 FHP      -0.167400
      8 C8          -0.7910    -1.0400     3.9720 c3         1 FHP      -0.021200
      9 C9          -0.6450     0.3850     4.5270 c3         1 FHP      -0.048200
     10 C10         -0.6760     0.4130     6.0230 c2         1 FHP      -0.195200
     11 C11          0.2930     0.7870     6.8620 c2         1 FHP      -0.143400
     12 C12          0.0890     0.7390     8.3490 c3         1 FHP      -0.047900
     13 C13          1.6450     1.2840     6.4430 c3         1 FHP      -0.047900
     14 C14         -2.1260    -0.5120     1.8540 c3         1 FHP      -0.047900
     15 C15          2.0290    -1.8180    -2.3220 c3         1 FHP      -0.005900
     16 O1           1.4680     1.9180    -4.3690 oh         1 FHP      -0.738000
     17 O1A         -0.4820     1.2130    -5.9840 o          1 FHP      -0.904500
     18 O2A         -0.6760    -1.2040    -5.0820 o          1 FHP      -0.904500
     19 O3A         -1.6700     0.7620    -3.7520 o          1 FHP      -0.904500
     20 PA          -0.6130     0.2840    -4.7470 p5         1 FHP       1.265500
     21 H1           1.7790    -0.1330    -4.4080 h1         1 FHP       0.021700
     22 H2           0.6350     1.3420    -1.9800 ha         1 FHP       0.153000
     23 H41          0.9890     0.4680     0.0710 hc         1 FHP       0.007200
     24 H42          2.2470    -0.7510     0.2240 hc         1 FHP       0.007200
     25 H51          0.5240    -2.5470    -0.0880 hc         1 FHP       0.060700
     26 H52         -0.7180    -1.3170    -0.2110 hc         1 FHP       0.060700
     27 H6           1.0290    -1.9010     2.2690 ha         1 FHP       0.141000
     28 H81          0.0530    -1.6420     4.3170 hc         1 FHP       0.028200
     29 H82         -1.6960    -1.4940     4.3930 hc         1 FHP       0.028200
     30 H91         -1.4660     1.0000     4.1430 hc         1 FHP       0.054700
     31 H92          0.2740     0.8240     4.1330 hc         1 FHP       0.054700
     32 H10         -1.6110     0.0660     6.4610 ha         1 FHP       0.154000
     33 H121         0.8180     0.0740     8.8210 hc         1 FHP       0.031700
     34 H122         0.2380     1.7250     8.7970 hc         1 FHP       0.031700
     35 H123        -0.9070     0.3920     8.6190 hc         1 FHP       0.031700
     36 H131         1.8010     1.2740     5.3670 hc         1 FHP       0.031700
     37 H132         1.8020     2.3070     6.7930 hc         1 FHP       0.031700
     38 H133         2.4330     0.6800     6.9000 hc         1 FHP       0.031700
     39 H141        -2.7380    -1.3090     1.4260 hc         1 FHP       0.040033
     40 H142        -2.7410    -0.0030     2.5960 hc         1 FHP       0.040033
     41 H143        -1.9260     0.2020     1.0550 hc         1 FHP       0.040033
     42 H151         2.4770    -1.6730    -3.3050 hc         1 FHP       0.010700
     43 H152         2.7950    -2.2320    -1.6620 hc         1 FHP       0.010700
     44 H153         1.2630    -2.5900    -2.4370 hc         1 FHP       0.010700
     45 HO1          0.8970     2.0540    -5.1550 ho         1 FHP       0.482000
@<TRIPOS>BOND
     1     1     2 1   
     2     1    16 1   
     3     1    20 1   
     4     1    21 1   
     5     2     3 2   
     6     2    22 1   
     7     3     4 1   
     8     3    15 1   
     9     4     5 1   
    10     4    23 1   
    11     4    24 1   
    12     5     6 1   
    13     5    25 1   
    14     5    26 1   
    15     6     7 2   
    16     6    27 1   
    17     7     8 1   
    18     7    14 1   
    19     8     9 1   
    20     8    28 1   
    21     8    29 1   
    22     9    10 1   
    23     9    30 1   
    24     9    31 1   
    25    10    11 2   
    26    10    32 1   
    27    11    12 1   
    28    11    13 1   
    29    12    33 1   
    30    12    34 1   
    31    12    35 1   
    32    13    36 1   
    33    13    37 1   
    34    13    38 1   
    35    14    39 1   
    36    14    40 1   
    37    14    41 1   
    38    15    42 1   
    39    15    43 1   
    40    15    44 1   
    41    16    45 1   
    42    17    20 1   
    43    18    20 1   
    44    19    20 1   
@<TRIPOS>SUBSTRUCTURE
     1 FHP         1 TEMP              0 ****  ****    0 ROOT
