@<TRIPOS>MOLECULE
FHQ
   27    28     1     0     0
SMALL
No Charge or Current Charge


@<TRIPOS>ATOM
      1 CAE         -5.6240    -0.2460     0.1690 cc         1 FHQ       0.505300
      2 CAF         -4.6660    -1.3720     0.3530 c3         1 FHQ      -0.181700
      3 CAG         -3.2620    -0.8400     0.5630 c          1 FHQ       0.626100
      4 CAK         -0.1620    -1.2850    -0.1290 ce         1 FHQ       0.369800
      5 CAL          2.2480    -1.7700     0.3700 ca         1 FHQ      -0.085000
      6 CAM          1.2730    -0.8640    -0.0970 ca         1 FHQ      -0.115900
      7 CAN          1.6810     0.4220    -0.5230 ca         1 FHQ      -0.085000
      8 CAO          3.0380     0.7880    -0.4800 ca         1 FHQ      -0.089500
      9 CAP          3.9970    -0.1240    -0.0130 ca         1 FHQ      -0.009900
     10 CAQ          3.6040    -1.4030     0.4120 ca         1 FHQ      -0.089500
     11 NAA         -7.0990     1.1480     0.3970 na         1 FHQ       0.115600
     12 NAB         -6.5570     1.3750    -0.8440 nd         1 FHQ      -0.166800
     13 NAC         -6.5120     0.1040     1.0680 nd         1 FHQ      -0.508800
     14 NAD         -5.6190     0.4810    -0.9800 nc         1 FHQ      -0.370000
     15 NAI         -2.4170    -0.9400    -0.5410 ns         1 FHQ      -0.282900
     16 NAJ         -1.1040    -0.4960    -0.5500 n2         1 FHQ      -0.403300
     17 OAH         -2.9040    -0.3630     1.6330 o          1 FHQ      -0.522100
     18 Br           5.8430     0.3760     0.0440 br         1 FHQ      -0.094100
     19 H1          -4.9580    -1.9500     1.2360 hc         1 FHQ       0.084700
     20 H2          -4.7050    -2.0100    -0.5360 hc         1 FHQ       0.084700
     21 H3          -0.3840    -2.2950     0.2210 h4         1 FHQ      -0.014200
     22 H5           0.9510     1.1410    -0.8880 ha         1 FHQ       0.128500
     23 H6           3.3440     1.7790    -0.8100 ha         1 FHQ       0.131500
     24 H7           4.3480    -2.1090     0.7750 ha         1 FHQ       0.131500
     25 H8          -7.8650     1.7080     0.7710 hn         1 FHQ       0.408000
     26 H9          -2.8270    -1.3480    -1.3760 hn         1 FHQ       0.303500
     27 H4           1.9540    -2.7640     0.7030 ha         1 FHQ       0.128500
@<TRIPOS>BOND
     1     1     2 1   
     2     1    13 2   
     3     1    14 1   
     4     2     3 1   
     5     2    19 1   
     6     2    20 1   
     7     3    15 1   
     8     3    17 2   
     9     4     6 1   
    10     4    16 2   
    11     4    21 1   
    12     5     6 ar  
    13     5    10 ar  
    14     5    27 1   
    15     6     7 ar  
    16     7     8 ar  
    17     7    22 1   
    18     8     9 ar  
    19     8    23 1   
    20     9    10 ar  
    21     9    18 1   
    22    10    24 1   
    23    11    12 1   
    24    11    13 1   
    25    11    25 1   
    26    12    14 2   
    27    15    16 1   
    28    15    26 1   
@<TRIPOS>SUBSTRUCTURE
     1 FHQ         1 TEMP              0 ****  ****    0 ROOT
