@<TRIPOS>MOLECULE
FHQ
   27    28     1     0     0
SMALL
bcc


@<TRIPOS>ATOM
      1 CAE         -5.7700    -0.1410     0.0090 cc         1 FHQ       0.505300
      2 CAF         -4.6240    -1.0750     0.0770 c3         1 FHQ      -0.181700
      3 CAG         -3.3050    -0.3230     0.0700 c          1 FHQ       0.693100
      4 CAK         -0.0110    -1.4560    -0.0170 ce         1 FHQ       0.369800
      5 CAL          2.4010    -1.9190    -0.0260 ca         1 FHQ      -0.103000
      6 CAM          1.3700    -0.9830    -0.0150 ca         1 FHQ      -0.115900
      7 CAN          1.6940     0.3760    -0.0010 ca         1 FHQ      -0.103000
      8 CAO          3.0140     0.7870     0.0000 ca         1 FHQ      -0.107500
      9 CAP          4.0250    -0.1680    -0.0110 ca         1 FHQ      -0.009900
     10 CAQ          3.7300    -1.5220    -0.0240 ca         1 FHQ      -0.107500
     11 NAA         -7.3260     1.0730     0.4970 na         1 FHQ       0.165900
     12 NAB         -7.2200     1.1680    -0.7920 nd         1 FHQ      -0.166800
     13 NAC         -6.4560     0.2750     1.0540 nd         1 FHQ      -0.508800
     14 NAD         -6.2350     0.4020    -1.1280 nc         1 FHQ      -0.370000
     15 NAI         -2.2260    -1.1460     0.0090 ns         1 FHQ      -0.349900
     16 NAJ         -0.9840    -0.6380     0.0170 n2         1 FHQ      -0.403300
     17 OAH         -3.2290     0.8850     0.1230 o          1 FHQ      -0.522100
     18 BR           5.8260     0.3920    -0.0090 br         1 FHQ      -0.094100
     19 H1          -4.6880    -1.6770     0.9870 hc         1 FHQ       0.084700
     20 H2          -4.6600    -1.7700    -0.7650 hc         1 FHQ       0.084700
     21 H3          -0.1580    -2.5380    -0.0470 h4         1 FHQ      -0.014200
     22 H5           0.9080     1.1190     0.0060 ha         1 FHQ       0.146500
     23 H6           3.2450     1.8440     0.0100 ha         1 FHQ       0.149500
     24 H7           4.5140    -2.2660    -0.0320 ha         1 FHQ       0.149500
     25 H8          -8.0310     1.5740     1.0220 hn         1 FHQ       0.357700
     26 H9          -2.3610    -2.1510    -0.0290 hn         1 FHQ       0.303500
     27 H4           2.1720    -2.9780    -0.0360 ha         1 FHQ       0.146500
@<TRIPOS>BOND
     1     1     2 1   
     2     1    13 2   
     3     1    14 1   
     4     2     3 1   
     5     2    19 1   
     6     2    20 1   
     7     3    15 1   
     8     3    17 2   
     9     4     6 1   
    10     4    16 2   
    11     4    21 1   
    12     5     6 ar  
    13     5    10 ar  
    14     5    27 1   
    15     6     7 ar  
    16     7     8 ar  
    17     7    22 1   
    18     8     9 ar  
    19     8    23 1   
    20     9    10 ar  
    21     9    18 1   
    22    10    24 1   
    23    11    12 1   
    24    11    13 1   
    25    11    25 1   
    26    12    14 2   
    27    15    16 1   
    28    15    26 1   
@<TRIPOS>SUBSTRUCTURE
     1 FHQ         1 TEMP              0 ****  ****    0 ROOT
