@<TRIPOS>MOLECULE
FHR
   65    68     1     0     0
SMALL
No Charge or Current Charge


@<TRIPOS>ATOM
      1 C02        -11.3600    11.5040    70.2330 c          1 FHR       0.635300
      2 C07         -7.7850     6.7440    71.6070 ca         1 FHR      -0.141000
      3 C08         -9.0280     6.1260    71.8880 ca         1 FHR      -0.081000
      4 C09        -10.2330     6.8410    71.7210 ca         1 FHR      -0.129000
      5 C10        -10.1580     8.1680    71.2730 ca         1 FHR      -0.034200
      6 C05         -8.9570     8.7590    71.0040 ca         1 FHR      -0.114800
      7 C06         -7.7400     8.0810    71.1580 ca         1 FHR      -0.053000
      8 C04         -9.2250    10.0960    70.5740 cc         1 FHR      -0.191200
      9 C03        -10.6130    10.2630    70.6000 cd         1 FHR      -0.143300
     10 N11        -11.2020     9.0480    71.0420 na         1 FHR      -0.186700
     11 O01        -12.5790    11.5860    70.2790 o          1 FHR      -0.627100
     12 N12        -10.5590    12.5480    69.8280 ns         1 FHR      -0.471900
     13 C13        -11.0320    13.8920    69.4260 c3         1 FHR       0.037700
     14 C21        -10.2740    14.3560    68.1500 c          1 FHR       0.585100
     15 O33         -9.2430    13.8260    67.7540 o          1 FHR      -0.597100
     16 C14        -10.8510    14.9130    70.5860 c3         1 FHR      -0.084400
     17 C15        -11.6980    14.6660    71.8740 c6         1 FHR      -0.058700
     18 C20        -13.2260    14.8180    71.6180 c6         1 FHR      -0.072900
     19 C19        -14.0460    14.5810    72.9100 c6         1 FHR      -0.072900
     20 C18        -13.5900    15.5260    74.0470 c6         1 FHR      -0.075400
     21 C17        -12.0720    15.3850    74.3110 c6         1 FHR      -0.072900
     22 C16        -11.2540    15.6230    73.0180 c6         1 FHR      -0.072900
     23 C29        -12.4340    13.7760    63.6070 c          1 FHR       0.565000
     24 N28        -11.9280    12.6700    62.9800 ns         1 FHR      -0.513900
     25 C27        -10.7080    12.1340    63.5800 c5         1 FHR       0.101000
     26 C26        -10.1440    13.4100    64.2630 c5         1 FHR      -0.090400
     27 C25        -11.4500    14.1070    64.7370 c5         1 FHR      -0.161700
     28 C24        -11.3210    15.6280    65.0320 c3         1 FHR      -0.065400
     29 C23        -10.3660    15.9920    66.2020 c3         1 FHR      -0.021300
     30 N22        -10.8510    15.4210    67.4820 ns         1 FHR      -0.495900
     31 C31        -10.1560    17.5200    66.3640 c          1 FHR       0.562900
     32 O32        -10.9100    18.3740    65.9070 o          1 FHR      -0.497100
     33 H15         -6.8610     6.1860    71.7390 ha         1 FHR       0.113000
     34 H16         -9.0540     5.0950    72.2340 ha         1 FHR       0.112000
     35 H17        -11.1920     6.3740    71.9340 ha         1 FHR       0.117000
     36 H14         -6.7930     8.5690    70.9390 ha         1 FHR       0.115000
     37 H13         -8.4830    10.8370    70.2850 ha         1 FHR       0.202000
     38 H32        -12.1940     8.8660    71.1620 hn         1 FHR       0.369000
     39 H1          -9.5670    12.3590    69.7750 hn         1 FHR       0.332500
     40 H2         -12.0920    13.8350    69.1500 h1         1 FHR       0.079700
     41 H18         -9.7860    14.9320    70.8500 hc         1 FHR       0.057200
     42 H19        -11.0760    15.9190    70.2080 hc         1 FHR       0.057200
     43 H3         -11.4950    13.6360    72.2000 hc         1 FHR       0.048700
     44 H7         -13.5620    14.1110    70.8500 hc         1 FHR       0.039700
     45 H6         -13.4410    15.8230    71.2280 hc         1 FHR       0.039700
     46 H25        -13.9350    13.5350    73.2310 hc         1 FHR       0.040950
     47 H24        -15.1150    14.7320    72.7060 hc         1 FHR       0.040950
     48 H23        -13.8250    16.5660    73.7800 hc         1 FHR       0.040700
     49 H22        -14.1510    15.3050    74.9650 hc         1 FHR       0.040700
     50 H5         -11.7610    16.1000    75.0850 hc         1 FHR       0.040950
     51 H4         -11.8560    14.3830    74.7070 hc         1 FHR       0.040950
     52 H20        -10.1860    15.4800    73.2330 hc         1 FHR       0.039700
     53 H21        -11.3700    16.6670    72.6970 hc         1 FHR       0.039700
     54 H28        -10.9360    11.3510    64.3150 h1         1 FHR       0.043200
     55 H29        -10.0120    11.7230    62.8370 h1         1 FHR       0.043200
     56 H10         -9.6020    14.0290    63.5370 hc         1 FHR       0.063200
     57 H11         -9.4520    13.1770    65.0790 hc         1 FHR       0.063200
     58 H27        -11.8130    13.5850    65.6300 hc         1 FHR       0.092700
     59 H9         -10.9750    16.1410    64.1250 hc         1 FHR       0.070700
     60 H8         -12.3140    16.0410    65.2510 hc         1 FHR       0.070700
     61 H26         -9.3700    15.5860    65.9800 h1         1 FHR       0.101700
     62 H33        -11.7060    15.7950    67.8830 hn         1 FHR       0.319500
     63 H31         -9.2500    17.8110    66.9400 h4         1 FHR      -0.005800
     64 H34        -12.3830    12.3280    62.1420 hn         1 FHR       0.325500
     65 O30        -13.3530    14.4390    63.1540 o          1 FHR      -0.558000
@<TRIPOS>BOND
     1     1     9 1   
     2     1    11 2   
     3     1    12 1   
     4     2     3 ar  
     5     2     7 ar  
     6     2    33 1   
     7     3     4 ar  
     8     3    34 1   
     9     4     5 ar  
    10     4    35 1   
    11     5     6 ar  
    12     5    10 1   
    13     6     7 ar  
    14     6     8 1   
    15     7    36 1   
    16     8     9 2   
    17     8    37 1   
    18     9    10 1   
    19    10    38 1   
    20    12    13 1   
    21    12    39 1   
    22    13    14 1   
    23    13    16 1   
    24    13    40 1   
    25    14    15 2   
    26    14    30 1   
    27    16    17 1   
    28    16    41 1   
    29    16    42 1   
    30    17    18 1   
    31    17    22 1   
    32    17    43 1   
    33    18    19 1   
    34    18    44 1   
    35    18    45 1   
    36    19    20 1   
    37    19    46 1   
    38    19    47 1   
    39    20    21 1   
    40    20    48 1   
    41    20    49 1   
    42    21    22 1   
    43    21    50 1   
    44    21    51 1   
    45    22    52 1   
    46    22    53 1   
    47    23    24 1   
    48    23    27 1   
    49    23    65 2   
    50    24    25 1   
    51    24    64 1   
    52    25    26 1   
    53    25    54 1   
    54    25    55 1   
    55    26    27 1   
    56    26    56 1   
    57    26    57 1   
    58    27    28 1   
    59    27    58 1   
    60    28    29 1   
    61    28    59 1   
    62    28    60 1   
    63    29    30 1   
    64    29    31 1   
    65    29    61 1   
    66    30    62 1   
    67    31    32 2   
    68    31    63 1   
@<TRIPOS>SUBSTRUCTURE
     1 FHR         1 TEMP              0 ****  ****    0 ROOT
