@<TRIPOS>MOLECULE
FHR
   65    68     1     0     0
SMALL
abcg2


@<TRIPOS>ATOM
      1 C02        -10.9520    11.8680    69.3680 c          1 FHR       0.635300
      2 C07         -8.6650     6.6770    71.4290 ca         1 FHR      -0.141000
      3 C08         -9.2390     6.2180    70.2280 ca         1 FHR      -0.081000
      4 C09         -9.8990     7.0720    69.3710 ca         1 FHR      -0.129000
      5 C10         -9.9780     8.4160    69.7420 ca         1 FHR      -0.034200
      6 C05         -9.4080     8.8990    70.9420 ca         1 FHR      -0.114800
      7 C06         -8.7430     8.0030    71.7940 ca         1 FHR      -0.053000
      8 C04         -9.6790    10.2940    70.9950 cc         1 FHR      -0.191200
      9 C03        -10.3830    10.6020    69.8580 cd         1 FHR      -0.143300
     10 N11        -10.5590     9.4700    69.1110 na         1 FHR      -0.186700
     11 O01        -11.6740    11.8860    68.3790 o          1 FHR      -0.627100
     12 N12        -10.6540    12.9720    70.0750 ns         1 FHR      -0.471900
     13 C13        -11.1060    14.2710    69.6520 c3         1 FHR       0.037700
     14 C21        -10.4070    14.6680    68.3500 c          1 FHR       0.585100
     15 O33         -9.2350    14.4030    68.1530 o          1 FHR      -0.597100
     16 C14        -10.8060    15.3150    70.7280 c3         1 FHR      -0.084400
     17 C15        -11.4550    15.0450    72.0860 c6         1 FHR      -0.058700
     18 C20        -12.9780    14.9500    72.0080 c6         1 FHR      -0.072900
     19 C19        -13.6050    14.7380    73.3840 c6         1 FHR      -0.072900
     20 C18        -13.1760    15.8180    74.3720 c6         1 FHR      -0.075400
     21 C17        -11.6560    15.9110    74.4570 c6         1 FHR      -0.072900
     22 C16        -11.0400    16.1310    73.0800 c6         1 FHR      -0.072900
     23 C29        -12.3560    12.8290    64.1460 c          1 FHR       0.565000
     24 N28        -11.7110    11.7070    63.7870 ns         1 FHR      -0.513900
     25 C27        -10.4690    11.4790    64.4960 c5         1 FHR       0.101000
     26 C26        -10.1320    12.8760    65.0170 c5         1 FHR      -0.090400
     27 C25        -11.5010    13.5320    65.1890 c5         1 FHR      -0.161700
     28 C24        -11.5450    15.0450    65.0650 c3         1 FHR      -0.065400
     29 C23        -10.7490    15.7430    66.1630 c3         1 FHR      -0.021300
     30 N22        -11.1770    15.3580    67.4870 ns         1 FHR      -0.495900
     31 C31        -10.7740    17.2530    66.0600 c          1 FHR       0.562900
     32 O32        -11.1280    17.8660    65.0890 o          1 FHR      -0.497100
     33 H15         -8.1570     5.9720    72.0730 ha         1 FHR       0.113000
     34 H16         -9.1600     5.1690    69.9720 ha         1 FHR       0.112000
     35 H17        -10.3400     6.7150    68.4490 ha         1 FHR       0.117000
     36 H14         -8.3020     8.3500    72.7190 ha         1 FHR       0.115000
     37 H13         -9.4000    10.9700    71.7880 ha         1 FHR       0.202000
     38 H32        -11.0590     9.4390    68.2370 hn         1 FHR       0.369000
     39 H1          -9.9260    12.9300    70.7710 hn         1 FHR       0.332500
     40 H2         -12.1850    14.2290    69.4820 h1         1 FHR       0.079700
     41 H18         -9.7210    15.3920    70.8540 hc         1 FHR       0.057200
     42 H19        -11.1430    16.2880    70.3560 hc         1 FHR       0.057200
     43 H3         -11.0800    14.0880    72.4750 hc         1 FHR       0.048700
     44 H7         -13.2790    14.1310    71.3490 hc         1 FHR       0.039700
     45 H6         -13.3730    15.8700    71.5610 hc         1 FHR       0.039700
     46 H25        -13.3040    13.7570    73.7680 hc         1 FHR       0.040950
     47 H24        -14.6940    14.7140    73.2960 hc         1 FHR       0.040950
     48 H23        -13.5810    16.7840    74.0510 hc         1 FHR       0.040700
     49 H22        -13.6000    15.6160    75.3590 hc         1 FHR       0.040700
     50 H5         -11.3620    16.7180    75.1320 hc         1 FHR       0.040950
     51 H4         -11.2590    14.9850    74.8880 hc         1 FHR       0.040950
     52 H20         -9.9490    16.1650    73.1560 hc         1 FHR       0.039700
     53 H21        -11.3540    17.1090    72.6950 hc         1 FHR       0.039700
     54 H28        -10.6050    10.7680    65.3170 h1         1 FHR       0.043200
     55 H29         -9.7040    11.0780    63.8300 h1         1 FHR       0.043200
     56 H10         -9.5470    13.4200    64.2700 hc         1 FHR       0.063200
     57 H11         -9.5530    12.8400    65.9370 hc         1 FHR       0.063200
     58 H27        -11.9120    13.2350    66.1620 hc         1 FHR       0.092700
     59 H9         -11.1410    15.3480    64.0960 hc         1 FHR       0.070700
     60 H8         -12.5850    15.3820    65.0940 hc         1 FHR       0.070700
     61 H26         -9.6900    15.4690    66.0840 h1         1 FHR       0.101700
     62 H33        -12.1550    15.4730    67.7060 hn         1 FHR       0.319500
     63 H31        -10.4180    17.7670    66.9720 h4         1 FHR      -0.005800
     64 H34        -12.1380    11.0080    63.2010 hn         1 FHR       0.325500
     65 O30        -13.4390    13.2040    63.7260 o          1 FHR      -0.558000
@<TRIPOS>BOND
     1     1     9 1   
     2     1    11 2   
     3     1    12 1   
     4     2     3 ar  
     5     2     7 ar  
     6     2    33 1   
     7     3     4 ar  
     8     3    34 1   
     9     4     5 ar  
    10     4    35 1   
    11     5     6 ar  
    12     5    10 1   
    13     6     7 ar  
    14     6     8 1   
    15     7    36 1   
    16     8     9 2   
    17     8    37 1   
    18     9    10 1   
    19    10    38 1   
    20    12    13 1   
    21    12    39 1   
    22    13    14 1   
    23    13    16 1   
    24    13    40 1   
    25    14    15 2   
    26    14    30 1   
    27    16    17 1   
    28    16    41 1   
    29    16    42 1   
    30    17    18 1   
    31    17    22 1   
    32    17    43 1   
    33    18    19 1   
    34    18    44 1   
    35    18    45 1   
    36    19    20 1   
    37    19    46 1   
    38    19    47 1   
    39    20    21 1   
    40    20    48 1   
    41    20    49 1   
    42    21    22 1   
    43    21    50 1   
    44    21    51 1   
    45    22    52 1   
    46    22    53 1   
    47    23    24 1   
    48    23    27 1   
    49    23    65 2   
    50    24    25 1   
    51    24    64 1   
    52    25    26 1   
    53    25    54 1   
    54    25    55 1   
    55    26    27 1   
    56    26    56 1   
    57    26    57 1   
    58    27    28 1   
    59    27    58 1   
    60    28    29 1   
    61    28    59 1   
    62    28    60 1   
    63    29    30 1   
    64    29    31 1   
    65    29    61 1   
    66    30    62 1   
    67    31    32 2   
    68    31    63 1   
@<TRIPOS>SUBSTRUCTURE
     1 FHR         1 TEMP              0 ****  ****    0 ROOT
