@<TRIPOS>MOLECULE
FHT
   31    32     1     0     0
SMALL
bcc


@<TRIPOS>ATOM
      1 N           -1.4170     0.4230     0.3200 ns         1 FHT      -0.573900
      2 CA          -2.8210     0.2990     0.5720 c3         1 FHT       0.073400
      3 C           -3.5150     1.5630     0.0710 c          1 FHT       0.671100
      4 O           -2.9480     2.4630    -0.5040 o          1 FHT      -0.522100
      5 CAA         -0.5550    -0.4720     0.8400 c          1 FHT       0.695700
      6 CAF         -3.4090    -0.9040    -0.0990 cc         1 FHT       0.437300
      7 CAN          0.8890    -0.2610     0.5370 ca         1 FHT      -0.152600
      8 CAO          1.8250    -0.8410     1.3890 ca         1 FHT      -0.083500
      9 CAP          3.1830    -0.6830     1.1640 ca         1 FHT      -0.107500
     10 CAQ          3.6040     0.0480     0.0620 ca         1 FHT       0.008100
     11 CAR          2.6890     0.6190    -0.8110 ca         1 FHT      -0.107500
     12 CAS          1.3340     0.4630    -0.5660 ca         1 FHT      -0.083500
     13 NAB         -3.8270    -2.3460    -1.5710 nd         1 FHT      -0.132800
     14 NAC         -4.5380    -2.5360    -0.5030 na         1 FHT       0.179900
     15 NAD         -3.0990    -1.3030    -1.3390 nc         1 FHT      -0.349000
     16 NAE         -4.3220    -1.6720     0.4510 nd         1 FHT      -0.513800
     17 NAJ         -4.8460     1.5820     0.3160 ns         1 FHT      -0.501300
     18 NAK         -5.5730     2.7100    -0.0450 nz         1 FHT      -0.589600
     19 OAM         -0.9390    -1.4030     1.5310 o          1 FHT      -0.577100
     20 BR           5.4470     0.2650    -0.2560 br         1 FHT      -0.059100
     21 H           -1.0950     1.2500    -0.1610 hn         1 FHT       0.353500
     22 HA          -3.0220     0.2160     1.6470 h1         1 FHT       0.108700
     23 HAO          1.4980    -1.4130     2.2460 ha         1 FHT       0.146000
     24 HAP          3.8940    -1.1300     1.8450 ha         1 FHT       0.160500
     25 HAR          3.0160     1.1770    -1.6780 ha         1 FHT       0.160500
     26 HAS          0.6400     0.9020    -1.2710 ha         1 FHT       0.146000
     27 HAC         -5.1940    -3.3030    -0.4170 hn         1 FHT       0.375700
     28 HAJ         -5.3380     0.9210     0.9000 hn         1 FHT       0.402500
     29 HAU         -5.8900     3.2380     0.7730 hn         1 FHT       0.478800
     30 HAT         -4.9790     3.3300    -0.6080 hn         1 FHT       0.478800
     31 H1          -6.3880     2.4590    -0.6100 hn         1 FHT       0.478800
@<TRIPOS>BOND
     1     1     2 1   
     2     1     5 1   
     3     1    21 1   
     4     2     3 1   
     5     2     6 1   
     6     2    22 1   
     7     3     4 2   
     8     3    17 1   
     9     5     7 1   
    10     5    19 2   
    11     6    15 1   
    12     6    16 2   
    13     7     8 ar  
    14     7    12 ar  
    15     8     9 ar  
    16     8    23 1   
    17     9    10 ar  
    18     9    24 1   
    19    10    11 ar  
    20    10    20 1   
    21    11    12 ar  
    22    11    25 1   
    23    12    26 1   
    24    13    14 1   
    25    13    15 2   
    26    14    16 1   
    27    14    27 1   
    28    17    18 1   
    29    17    28 1   
    30    18    29 1   
    31    18    30 1   
    32    18    31 1   
@<TRIPOS>SUBSTRUCTURE
     1 FHT         1 TEMP              0 ****  ****    0 ROOT
