@<TRIPOS>MOLECULE
FHT
   31    32     1     0     0
SMALL
No Charge or Current Charge


@<TRIPOS>ATOM
      1 N           -1.4070     0.3400     0.3670 ns         1 FHT      -0.506900
      2 CA          -2.8840     0.2490     0.5670 c3         1 FHT       0.073400
      3 C           -3.5890     1.5070     0.0220 c          1 FHT       0.604100
      4 O           -3.0110     2.3680    -0.6310 o          1 FHT      -0.522100
      5 CAA         -0.4870    -0.4810     0.9760 c          1 FHT       0.628700
      6 CAF         -3.5090    -0.9980    -0.0130 cc         1 FHT       0.437300
      7 CAN          0.9710    -0.2610     0.6240 ca         1 FHT      -0.152600
      8 CAO          1.9580    -1.0790     1.2240 ca         1 FHT      -0.065500
      9 CAP          3.3190    -0.9050     0.9220 ca         1 FHT      -0.089500
     10 CAQ          3.7150     0.0890     0.0160 ca         1 FHT       0.008100
     11 CAR          2.7520     0.9100    -0.5890 ca         1 FHT      -0.089500
     12 CAS          1.3880     0.7400    -0.2900 ca         1 FHT      -0.065500
     13 NAB         -3.8480    -2.5420    -1.4420 nd         1 FHT      -0.132800
     14 NAC         -4.6490    -2.6680    -0.3350 na         1 FHT       0.129600
     15 NAD         -3.1280    -1.4780    -1.2300 nc         1 FHT      -0.349000
     16 NAE         -4.4510    -1.6790     0.5990 nd         1 FHT      -0.513800
     17 NAJ         -4.9550     1.6210     0.3030 ns         1 FHT      -0.434300
     18 NAK         -5.6870     2.8430    -0.2250 nz         1 FHT      -0.755200
     19 OAM         -0.8450    -1.3430     1.7650 o          1 FHT      -0.577100
     20 Br           5.5690     0.3260    -0.3950 br         1 FHT      -0.059100
     21 H           -1.0530     1.0390    -0.2760 hn         1 FHT       0.353500
     22 HA          -3.0770     0.2410     1.6460 h1         1 FHT       0.108700
     23 HAO          1.6720    -1.8570     1.9300 ha         1 FHT       0.128000
     24 HAP          4.0660    -1.5420     1.3910 ha         1 FHT       0.142500
     25 HAR          3.0610     1.6810    -1.2920 ha         1 FHT       0.142500
     26 HAS          0.6730     1.3960    -0.7800 ha         1 FHT       0.128000
     27 HAC         -5.3230    -3.4270    -0.2310 hn         1 FHT       0.426000
     28 HAJ         -5.4180     0.8780     0.8420 hn         1 FHT       0.402500
     29 HAU         -6.0510     3.5210     0.4710 hn         1 FHT       0.534000
     30 HAT         -5.0590     3.4810    -0.7510 hn         1 FHT       0.534000
     31 H1          -6.4050     2.6930    -0.9570 hn         1 FHT       0.534000
@<TRIPOS>BOND
     1     1     2 1   
     2     1     5 1   
     3     1    21 1   
     4     2     3 1   
     5     2     6 1   
     6     2    22 1   
     7     3     4 2   
     8     3    17 1   
     9     5     7 1   
    10     5    19 2   
    11     6    15 1   
    12     6    16 2   
    13     7     8 ar  
    14     7    12 ar  
    15     8     9 ar  
    16     8    23 1   
    17     9    10 ar  
    18     9    24 1   
    19    10    11 ar  
    20    10    20 1   
    21    11    12 ar  
    22    11    25 1   
    23    12    26 1   
    24    13    14 1   
    25    13    15 2   
    26    14    16 1   
    27    14    27 1   
    28    17    18 1   
    29    17    28 1   
    30    18    29 1   
    31    18    30 1   
    32    18    31 1   
@<TRIPOS>SUBSTRUCTURE
     1 FHT         1 TEMP              0 ****  ****    0 ROOT
