@<TRIPOS>MOLECULE
FHV
   31    32     1     0     0
SMALL
abcg2


@<TRIPOS>ATOM
      1 C01          4.5030     1.7870     0.4730 c3         1 FHV      -0.046800
      2 C02          3.5510     0.6660     0.1730 ca         1 FHV      -0.049300
      3 C03          4.0230    -0.6040    -0.1540 ca         1 FHV      -0.138000
      4 C04          3.1270    -1.6160    -0.4600 ca         1 FHV      -0.084000
      5 C05          1.7560    -1.4000    -0.4460 ca         1 FHV      -0.127000
      6 C06          1.2690    -0.1380    -0.1050 ca         1 FHV      -0.003000
      7 N07         -0.0870     0.1960    -0.1010 ns         1 FHV      -0.166000
      8 C08         -1.1400    -0.6540     0.1470 c          1 FHV       0.667100
      9 O09         -0.9900    -1.8390     0.4220 o          1 FHV      -0.628100
     10 N10         -2.3590    -0.0820     0.0660 n          1 FHV      -0.439800
     11 C11         -3.5650    -0.8440     0.3660 c5         1 FHV       0.109500
     12 C12         -4.6510     0.2250     0.3890 c5         1 FHV      -0.094400
     13 C13         -4.1540     1.2480    -0.6270 c5         1 FHV      -0.094400
     14 C14         -2.6490     1.2740    -0.3850 c5         1 FHV       0.109500
     15 C15          2.1790     0.8780     0.2010 ca         1 FHV      -0.171000
     16 H011         4.8930     2.2230    -0.4480 hc         1 FHV       0.041033
     17 H012         4.0200     2.5870     1.0330 hc         1 FHV       0.041033
     18 H013         5.3590     1.4390     1.0520 hc         1 FHV       0.041033
     19 H03          5.0890    -0.7970    -0.1740 ha         1 FHV       0.112000
     20 H15          1.8010     1.8590     0.4730 ha         1 FHV       0.103000
     21 H04          3.4970    -2.5990    -0.7230 ha         1 FHV       0.113000
     22 H05          1.0850    -2.2050    -0.7030 ha         1 FHV       0.142000
     23 H07         -0.2740     1.1870    -0.0910 hn         1 FHV       0.146000
     24 H111        -3.7570    -1.5910    -0.4100 h1         1 FHV       0.049200
     25 H112        -3.4760    -1.3700     1.3170 h1         1 FHV       0.049200
     26 H141        -2.3900     2.0120     0.3830 h1         1 FHV       0.049200
     27 H142        -2.0950     1.5240    -1.2920 h1         1 FHV       0.049200
     28 H121        -5.6320    -0.1810     0.1460 hc         1 FHV       0.055200
     29 H122        -4.7120     0.6770     1.3800 hc         1 FHV       0.055200
     30 H131        -4.3620     0.9050    -1.6430 hc         1 FHV       0.055200
     31 H132        -4.6050     2.2320    -0.5070 hc         1 FHV       0.055200
@<TRIPOS>BOND
     1     1     2 1   
     2     1    16 1   
     3     1    17 1   
     4     1    18 1   
     5     2     3 ar  
     6     2    15 ar  
     7     3     4 ar  
     8     3    19 1   
     9     4     5 ar  
    10     4    21 1   
    11     5     6 ar  
    12     5    22 1   
    13     6     7 1   
    14     6    15 ar  
    15     7     8 1   
    16     7    23 1   
    17     8     9 2   
    18     8    10 1   
    19    10    11 1   
    20    10    14 1   
    21    11    12 1   
    22    11    24 1   
    23    11    25 1   
    24    12    13 1   
    25    12    28 1   
    26    12    29 1   
    27    13    14 1   
    28    13    30 1   
    29    13    31 1   
    30    14    26 1   
    31    14    27 1   
    32    15    20 1   
@<TRIPOS>SUBSTRUCTURE
     1 FHV         1 TEMP              0 ****  ****    0 ROOT
