@<TRIPOS>MOLECULE
FHV
   31    32     1     0     0
SMALL
No Charge or Current Charge


@<TRIPOS>ATOM
      1 C01          4.4810     1.9340     0.0850 c3         1 FHV      -0.046800
      2 C02          3.5700     0.7160     0.0480 ca         1 FHV      -0.049300
      3 C03          4.1170    -0.5790     0.0200 ca         1 FHV      -0.138000
      4 C04          3.2730    -1.7000    -0.0180 ca         1 FHV      -0.084000
      5 C05          1.8780    -1.5340    -0.0290 ca         1 FHV      -0.127000
      6 C06          1.3140    -0.2400    -0.0030 ca         1 FHV      -0.003000
      7 N07         -0.0850     0.0140    -0.0140 ns         1 FHV      -0.166000
      8 C08         -1.1920    -0.8250    -0.0330 c          1 FHV       0.667100
      9 O09         -1.1300    -2.0480    -0.0390 o          1 FHV      -0.628100
     10 N10         -2.4370    -0.1670    -0.0430 n          1 FHV      -0.439800
     11 C11         -3.7220    -0.8970    -0.0380 c5         1 FHV       0.109500
     12 C12         -4.7190     0.2310     0.3310 c5         1 FHV      -0.094400
     13 C13         -4.1070     1.4460    -0.4070 c5         1 FHV      -0.094400
     14 C14         -2.6030     1.3050    -0.0560 c5         1 FHV       0.109500
     15 C15          2.1720     0.8760     0.0340 ca         1 FHV      -0.171000
     16 H011         4.6910     2.2940    -0.9290 hc         1 FHV       0.041033
     17 H012         4.0230     2.7580     0.6450 hc         1 FHV       0.041033
     18 H013         5.4390     1.7030     0.5650 hc         1 FHV       0.041033
     19 H03          5.1960    -0.7170     0.0270 ha         1 FHV       0.112000
     20 H15          1.7490     1.8780     0.0520 ha         1 FHV       0.103000
     21 H04          3.7010    -2.7000    -0.0390 ha         1 FHV       0.113000
     22 H05          1.2560    -2.4230    -0.0590 ha         1 FHV       0.142000
     23 H07         -0.3170     0.9970    -0.0050 hn         1 FHV       0.146000
     24 H111        -3.9320    -1.3130    -1.0320 h1         1 FHV       0.049200
     25 H112        -3.7380    -1.7140     0.6950 h1         1 FHV       0.049200
     26 H141        -2.3790     1.7280     0.9330 h1         1 FHV       0.049200
     27 H142        -1.9670     1.7980    -0.8030 h1         1 FHV       0.049200
     28 H121        -5.7430     0.0060     0.0100 hc         1 FHV       0.055200
     29 H122        -4.7430     0.3970     1.4150 hc         1 FHV       0.055200
     30 H131        -4.2670     1.3730    -1.4890 hc         1 FHV       0.055200
     31 H132        -4.5260     2.4030    -0.0760 hc         1 FHV       0.055200
@<TRIPOS>BOND
     1     1     2 1   
     2     1    16 1   
     3     1    17 1   
     4     1    18 1   
     5     2     3 ar  
     6     2    15 ar  
     7     3     4 ar  
     8     3    19 1   
     9     4     5 ar  
    10     4    21 1   
    11     5     6 ar  
    12     5    22 1   
    13     6     7 1   
    14     6    15 ar  
    15     7     8 1   
    16     7    23 1   
    17     8     9 2   
    18     8    10 1   
    19    10    11 1   
    20    10    14 1   
    21    11    12 1   
    22    11    24 1   
    23    11    25 1   
    24    12    13 1   
    25    12    28 1   
    26    12    29 1   
    27    13    14 1   
    28    13    30 1   
    29    13    31 1   
    30    14    26 1   
    31    14    27 1   
    32    15    20 1   
@<TRIPOS>SUBSTRUCTURE
     1 FHV         1 TEMP              0 ****  ****    0 ROOT
