@<TRIPOS>MOLECULE
FHW
   29    30     1     0     0
SMALL
abcg2


@<TRIPOS>ATOM
      1 CAA         -1.4950    -0.9690    -0.5630 ca         1 FHW      -0.088300
      2 CAB         -2.3260     0.0150    -1.0920 ca         1 FHW      -0.103000
      3 CAC         -3.6580     0.1040    -0.7040 ca         1 FHW      -0.111000
      4 CAD         -4.1760    -0.7930     0.2210 ca         1 FHW      -0.108000
      5 CAE         -3.3550    -1.7810     0.7520 ca         1 FHW      -0.111000
      6 CAF         -2.0260    -1.8650     0.3620 ca         1 FHW      -0.103000
      7 CAK          0.5680     1.0450     0.2850 cc         1 FHW       0.508300
      8 CAL          0.8670    -0.4010     0.1090 c3         1 FHW      -0.161000
      9 CAM          2.3240    -0.5950    -0.3050 c          1 FHW       0.622100
     10 CAQ         -0.0450    -1.0490    -0.9510 c3         1 FHW      -0.018100
     11 NAG          0.1380     2.8510     1.1200 na         1 FHW       0.110600
     12 NAH          0.1770     3.0740    -0.1580 nd         1 FHW      -0.172800
     13 NAI          0.3700     1.6110     1.4580 nd         1 FHW      -0.522800
     14 NAJ          0.4490     1.9380    -0.7120 nc         1 FHW      -0.354000
     15 NAP          4.2700    -1.8790     0.1400 n8         1 FHW      -0.718200
     16 OAN          2.8110     0.0200    -1.2350 o          1 FHW      -0.535100
     17 H1          -1.9280     0.7190    -1.8130 ha         1 FHW       0.115000
     18 H2          -4.2900     0.8730    -1.1270 ha         1 FHW       0.112500
     19 H3          -5.2130    -0.7260     0.5230 ha         1 FHW       0.112000
     20 H4          -3.7530    -2.4870     1.4700 ha         1 FHW       0.112500
     21 H5          -1.3950    -2.6420     0.7800 ha         1 FHW       0.115000
     22 H6           0.6790    -0.8850     1.0710 hc         1 FHW       0.070700
     23 H7           0.2540    -2.0940    -1.0630 hc         1 FHW       0.069200
     24 H8           0.1190    -0.5660    -1.9150 hc         1 FHW       0.069200
     25 H9          -0.0650     3.5790     1.7920 hn         1 FHW       0.405000
     26 H10          2.4900    -1.9600     1.2010 hn         1 FHW       0.299500
     27 H11          4.8490    -1.6940     0.9490 hn         1 FHW       0.398500
     28 H12          4.3050    -2.8740    -0.0410 hn         1 FHW       0.398500
     29 NAO          2.9660    -1.5200     0.4260 ns         1 FHW      -0.411300
@<TRIPOS>BOND
     1     1     2 ar  
     2     1     6 ar  
     3     1    10 1   
     4     2     3 ar  
     5     2    17 1   
     6     3     4 ar  
     7     3    18 1   
     8     4     5 ar  
     9     4    19 1   
    10     5     6 ar  
    11     5    20 1   
    12     6    21 1   
    13     7     8 1   
    14     7    13 2   
    15     7    14 1   
    16     8     9 1   
    17     8    10 1   
    18     8    22 1   
    19     9    16 2   
    20     9    29 1   
    21    10    23 1   
    22    10    24 1   
    23    11    12 1   
    24    11    13 1   
    25    11    25 1   
    26    12    14 2   
    27    15    27 1   
    28    15    28 1   
    29    15    29 1   
    30    26    29 1   
@<TRIPOS>SUBSTRUCTURE
     1 FHW         1 TEMP              0 ****  ****    0 ROOT
