@<TRIPOS>MOLECULE
FHW
   29    30     1     0     0
SMALL
No Charge or Current Charge


@<TRIPOS>ATOM
      1 CAA         -1.5900    -0.9520    -0.6110 ca         1 FHW      -0.088300
      2 CAB         -2.4440     0.0240    -1.1620 ca         1 FHW      -0.103000
      3 CAC         -3.7840     0.1120    -0.7450 ca         1 FHW      -0.111000
      4 CAD         -4.2780    -0.7750     0.2260 ca         1 FHW      -0.108000
      5 CAE         -3.4320    -1.7510     0.7790 ca         1 FHW      -0.111000
      6 CAF         -2.0930    -1.8390     0.3620 ca         1 FHW      -0.103000
      7 CAK          0.6000     0.9940     0.3020 cc         1 FHW       0.508300
      8 CAL          0.8440    -0.4540    -0.0040 c3         1 FHW      -0.161000
      9 CAM          2.2990    -0.6670    -0.4160 c          1 FHW       0.622100
     10 CAQ         -0.1350    -1.0460    -1.0550 c3         1 FHW      -0.018100
     11 NAG          0.2830     2.7800     1.2500 na         1 FHW       0.110600
     12 NAH          0.2640     3.0620    -0.0920 nd         1 FHW      -0.172800
     13 NAI          0.5010     1.4530     1.5280 nd         1 FHW      -0.522800
     14 NAJ          0.4670     1.9220    -0.6870 nc         1 FHW      -0.354000
     15 NAP          4.4690    -1.7910     0.2780 n8         1 FHW      -0.718200
     16 OAN          2.7750    -0.1880    -1.4380 o          1 FHW      -0.535100
     17 H1          -2.0710     0.7170    -1.9120 ha         1 FHW       0.115000
     18 H2          -4.4370     0.8690    -1.1730 ha         1 FHW       0.112500
     19 H3          -5.3150    -0.7060     0.5490 ha         1 FHW       0.112000
     20 H4          -3.8140    -2.4380     1.5310 ha         1 FHW       0.112500
     21 H5          -1.4450    -2.5980     0.7960 ha         1 FHW       0.115000
     22 H6           0.6840    -1.0140     0.9240 hc         1 FHW       0.070700
     23 H7           0.1250    -2.0980    -1.2320 hc         1 FHW       0.069200
     24 H8           0.0060    -0.5400    -2.0180 hc         1 FHW       0.069200
     25 H9           0.1490     3.4970     1.9640 hn         1 FHW       0.405000
     26 H10          2.5700    -1.8040     1.2850 hn         1 FHW       0.299500
     27 H11          5.0440    -1.4560     1.0660 hn         1 FHW       0.398500
     28 H12          4.6090    -2.8120     0.2270 hn         1 FHW       0.398500
     29 NAO          3.0590    -1.4520     0.4600 ns         1 FHW      -0.411300
@<TRIPOS>BOND
     1     1     2 ar  
     2     1     6 ar  
     3     1    10 1   
     4     2     3 ar  
     5     2    17 1   
     6     3     4 ar  
     7     3    18 1   
     8     4     5 ar  
     9     4    19 1   
    10     5     6 ar  
    11     5    20 1   
    12     6    21 1   
    13     7     8 1   
    14     7    13 2   
    15     7    14 1   
    16     8     9 1   
    17     8    10 1   
    18     8    22 1   
    19     9    16 2   
    20     9    29 1   
    21    10    23 1   
    22    10    24 1   
    23    11    12 1   
    24    11    13 1   
    25    11    25 1   
    26    12    14 2   
    27    15    27 1   
    28    15    28 1   
    29    15    29 1   
    30    26    29 1   
@<TRIPOS>SUBSTRUCTURE
     1 FHW         1 TEMP              0 ****  ****    0 ROOT
