@<TRIPOS>MOLECULE
FHX
   41    44     1     0     0
SMALL
abcg2


@<TRIPOS>ATOM
      1 C1           7.4930    -0.8510    25.7300 cy         1 FHX       0.108400
      2 C3           6.1210     0.8090    25.6810 cy         1 FHX       0.098000
      3 C4           6.2660    -0.4250    26.5960 cy         1 FHX      -0.081700
      4 N2           7.3060     0.3640    24.9580 nj         1 FHX      -0.420800
      5 C7           9.6090    -3.0080    27.7040 ca         1 FHX       0.441900
      6 C8          10.6810    -2.3500    28.3530 ca         1 FHX      -0.251800
      7 C9          11.3700    -3.1380    29.2900 ca         1 FHX       0.145500
      8 C11         12.3440    -1.1410    29.2400 cc         1 FHX      -0.182100
      9 C12         11.3290    -1.0730    28.3340 cd         1 FHX      -0.204200
     10 C13         10.1040    -4.9030    28.9100 ca         1 FHX       0.180900
     11 C15          8.8350    -1.0260    26.4360 c5         1 FHX       0.225800
     12 C16          7.3320    -2.1820    25.0090 c5         1 FHX      -0.110400
     13 C17          7.7800    -3.1710    26.0740 c5         1 FHX       0.236800
     14 C18          7.9490     0.8400    23.8940 c          1 FHX       0.623100
     15 C20          7.3610     2.1430    23.3640 c3         1 FHX      -0.102300
     16 C21          8.1360     2.6450    22.2460 c1         1 FHX       0.308900
     17 C23          6.4760    -0.1300    28.0650 c3         1 FHX      -0.085100
     18 N10         12.3630    -2.3850    29.8160 na         1 FHX      -0.316400
     19 N14         11.1110    -4.4110    29.6000 nb         1 FHX      -0.235000
     20 N22          8.7370     3.0610    21.3590 n1         1 FHX      -0.435000
     21 N5           8.8150    -2.4310    26.7900 nh         1 FHX      -0.783300
     22 N6           9.3560    -4.2890    28.0000 nb         1 FHX      -0.307000
     23 O19          8.9170     0.3070    23.3780 o          1 FHX      -0.575100
     24 H1           6.2490     1.7720    26.1810 h1         1 FHX       0.053700
     25 H2           5.2170     0.8410    25.0700 h1         1 FHX       0.053700
     26 H3           5.4420    -1.1310    26.4780 hc         1 FHX       0.071700
     27 H4          13.0660    -0.3930    29.5250 h4         1 FHX       0.216000
     28 H5          11.0980    -0.2100    27.7320 ha         1 FHX       0.203000
     29 H6           9.8460    -5.9390    29.1050 h5         1 FHX       0.042100
     30 H7           9.6560    -0.7870    25.7530 h1         1 FHX       0.069700
     31 H8           8.9280    -0.3880    27.3130 h1         1 FHX       0.069700
     32 H9           6.3130    -2.3640    24.6670 hc         1 FHX       0.072700
     33 H10          7.9990    -2.2220    24.1450 hc         1 FHX       0.072700
     34 H11          6.9570    -3.4400    26.7430 h1         1 FHX       0.062700
     35 H12          8.1750    -4.0960    25.6530 h1         1 FHX       0.062700
     36 H13          7.3330     2.9060    24.1470 hc         1 FHX       0.086700
     37 H14          6.3280     1.9930    23.0360 hc         1 FHX       0.086700
     38 H15          5.5470     0.2300    28.5080 hc         1 FHX       0.046033
     39 H16          6.7770    -1.0240    28.6130 hc         1 FHX       0.046033
     40 H17          7.2340     0.6380    28.2260 hc         1 FHX       0.046033
     41 H18         13.0210    -2.6990    30.5100 hn         1 FHX       0.361000
@<TRIPOS>BOND
     1     1     3 1   
     2     1     4 1   
     3     1    11 1   
     4     1    12 1   
     5     2     3 1   
     6     2     4 1   
     7     2    24 1   
     8     2    25 1   
     9     3    17 1   
    10     3    26 1   
    11     4    14 1   
    12     5     6 ar  
    13     5    21 1   
    14     5    22 ar  
    15     6     7 ar  
    16     6     9 1   
    17     7    18 1   
    18     7    19 ar  
    19     8     9 2   
    20     8    18 1   
    21     8    27 1   
    22     9    28 1   
    23    10    19 ar  
    24    10    22 ar  
    25    10    29 1   
    26    11    21 1   
    27    11    30 1   
    28    11    31 1   
    29    12    13 1   
    30    12    32 1   
    31    12    33 1   
    32    13    21 1   
    33    13    34 1   
    34    13    35 1   
    35    14    15 1   
    36    14    23 2   
    37    15    16 1   
    38    15    36 1   
    39    15    37 1   
    40    16    20 3   
    41    17    38 1   
    42    17    39 1   
    43    17    40 1   
    44    18    41 1   
@<TRIPOS>SUBSTRUCTURE
     1 FHX         1 TEMP              0 ****  ****    0 ROOT
