@<TRIPOS>MOLECULE
FHX
   41    44     1     0     0
SMALL
No Charge or Current Charge


@<TRIPOS>ATOM
      1 C1           7.4880    -0.5960    25.8210 cy         1 FHX       0.108400
      2 C3           6.2660     1.1190    26.2660 cy         1 FHX       0.098000
      3 C4           6.1010    -0.4230    26.5350 cy         1 FHX      -0.081700
      4 N2           7.4330     0.8430    25.3520 nj         1 FHX      -0.420800
      5 C7           9.8980    -2.8010    27.6100 ca         1 FHX       0.441900
      6 C8          10.8370    -2.1760    28.4580 ca         1 FHX      -0.251800
      7 C9          11.4770    -2.9050    29.4300 ca         1 FHX       0.145500
      8 C11         12.2900    -0.7450    29.5760 cc         1 FHX      -0.182100
      9 C12         11.3620    -0.8290    28.5540 cd         1 FHX      -0.204200
     10 C13         10.3380    -4.7610    28.7460 ca         1 FHX       0.180900
     11 C15          8.8110    -0.7110    26.6220 c5         1 FHX       0.225800
     12 C16          7.8100    -1.6580    24.7200 c5         1 FHX      -0.110400
     13 C17          8.3190    -2.8430    25.5970 c5         1 FHX       0.236800
     14 C18          6.7590     0.8160    24.0790 c          1 FHX       0.623100
     15 C20          7.5050     1.6520    23.0450 c3         1 FHX      -0.102300
     16 C21          8.2050     0.8100    22.0820 c1         1 FHX       0.308900
     17 C23          5.9310    -0.9010    27.9880 c3         1 FHX      -0.085100
     18 N10         12.3370    -2.0510    30.1050 na         1 FHX      -0.316400
     19 N14         11.2390    -4.2170    29.5960 nb         1 FHX      -0.235000
     20 N22          8.7870     0.1580    21.3120 n1         1 FHX      -0.435000
     21 N5           9.1770    -2.1410    26.5900 nh         1 FHX      -0.783300
     22 N6           9.6600    -4.1220    27.7630 nb         1 FHX      -0.307000
     23 O19          5.7140     0.2860    23.7080 o          1 FHX      -0.575100
     24 H1           6.5840     1.6850    27.1500 h1         1 FHX       0.053700
     25 H2           5.3930     1.6110    25.8180 h1         1 FHX       0.053700
     26 H3           5.2800    -0.8660    25.9620 hc         1 FHX       0.071700
     27 H4          12.8930     0.0850    29.9430 h4         1 FHX       0.216000
     28 H5          11.1000     0.0080    27.9120 ha         1 FHX       0.203000
     29 H6          10.1370    -5.8240    28.8650 h5         1 FHX       0.042100
     30 H7           9.6120    -0.1180    26.1580 h1         1 FHX       0.069700
     31 H8           8.7050    -0.3420    27.6510 h1         1 FHX       0.069700
     32 H9           6.9510    -1.9620    24.1130 hc         1 FHX       0.072700
     33 H10          8.6030    -1.3350    24.0350 hc         1 FHX       0.072700
     34 H11          7.4810    -3.3600    26.0880 h1         1 FHX       0.062700
     35 H12          8.8790    -3.5760    24.9990 h1         1 FHX       0.062700
     36 H13          8.2500     2.2860    23.5350 hc         1 FHX       0.086700
     37 H14          6.7870     2.2680    22.4930 hc         1 FHX       0.086700
     38 H15          4.9310    -0.6540    28.3640 hc         1 FHX       0.046033
     39 H16          6.0580    -1.9880    28.0590 hc         1 FHX       0.046033
     40 H17          6.6610    -0.4320    28.6580 hc         1 FHX       0.046033
     41 H18         12.9260    -2.3470    30.8770 hn         1 FHX       0.361000
@<TRIPOS>BOND
     1     1     3 1   
     2     1     4 1   
     3     1    11 1   
     4     1    12 1   
     5     2     3 1   
     6     2     4 1   
     7     2    24 1   
     8     2    25 1   
     9     3    17 1   
    10     3    26 1   
    11     4    14 1   
    12     5     6 ar  
    13     5    21 1   
    14     5    22 ar  
    15     6     7 ar  
    16     6     9 1   
    17     7    18 1   
    18     7    19 ar  
    19     8     9 2   
    20     8    18 1   
    21     8    27 1   
    22     9    28 1   
    23    10    19 ar  
    24    10    22 ar  
    25    10    29 1   
    26    11    21 1   
    27    11    30 1   
    28    11    31 1   
    29    12    13 1   
    30    12    32 1   
    31    12    33 1   
    32    13    21 1   
    33    13    34 1   
    34    13    35 1   
    35    14    15 1   
    36    14    23 2   
    37    15    16 1   
    38    15    36 1   
    39    15    37 1   
    40    16    20 3   
    41    17    38 1   
    42    17    39 1   
    43    17    40 1   
    44    18    41 1   
@<TRIPOS>SUBSTRUCTURE
     1 FHX         1 TEMP              0 ****  ****    0 ROOT
