@<TRIPOS>MOLECULE
FHY
   66    68     1     0     0
SMALL
abcg2


@<TRIPOS>ATOM
      1 CBI          1.3150    -3.9720     1.4300 c3         1 FHY      -0.181100
      2 CBG          0.7040    -3.2120     0.2810 c          1 FHY       0.618100
      3 OBH         -0.3780    -3.5260    -0.2080 o          1 FHY      -0.668100
      4 NBF          1.4220    -2.1600    -0.1390 ns         1 FHY      -0.461900
      5 CBE          1.0420    -1.2990    -1.2290 c6         1 FHY       0.057700
      6 CBB          2.2170    -1.1300    -2.1960 c6         1 FHY       0.376300
      7 OBC          2.6480    -2.3650    -2.6030 os         1 FHY      -0.440000
      8 CBD          3.5670    -2.3440    -3.6800 c3         1 FHY       0.153900
      9 OBA          3.2790    -0.4620    -1.5470 os         1 FHY      -0.486000
     10 CAZ          2.8960     0.8430    -1.1850 c6         1 FHY       0.084300
     11 CAY          4.0610     1.6030    -0.5830 c6         1 FHY       0.181600
     12 OAX          3.6010     2.8780    -0.1920 os         1 FHY      -0.464000
     13 CAS          2.5320     2.8540     0.7240 c6         1 FHY       0.225000
     14 CAT          2.0670     4.2890     0.8910 c3         1 FHY      -0.056100
     15 CAU          2.9710     2.3050     2.1240 c          1 FHY       0.690000
     16 OAV          4.1550     2.5150     2.4390 o          1 FHY      -0.700500
     17 OAW          2.0790     1.7840     2.8130 o          1 FHY      -0.700500
     18 OAR          1.4430     2.1370     0.1850 os         1 FHY      -0.442000
     19 CAQ          1.7730     0.8150    -0.1490 c6         1 FHY       0.153300
     20 CAP          0.5820     0.0900    -0.7420 c6         1 FHY       0.162300
     21 O1          -0.4300    -0.0160     0.2350 os         1 FHY      -0.379000
     22 C1          -1.7150    -0.1060    -0.2550 c6         1 FHY       0.381300
     23 O5          -2.0840     1.1510    -0.7550 os         1 FHY      -0.454000
     24 C5          -3.3450     1.1550    -1.3920 c6         1 FHY       0.155300
     25 C6          -3.5570     2.5230    -2.0000 c3         1 FHY       0.170600
     26 O6          -2.5990     2.7290    -3.0100 oh         1 FHY      -0.702000
     27 C4          -4.4250     0.8070    -0.3620 c6         1 FHY       0.093300
     28 O4          -5.6920     0.6520    -0.9630 oh         1 FHY      -0.731000
     29 C3          -4.0880    -0.5170     0.3190 c6         1 FHY       0.156300
     30 O3          -4.9710    -0.7990     1.3710 oh         1 FHY      -0.634000
     31 C2          -2.6650    -0.4950     0.8780 c6         1 FHY       0.094700
     32 N2          -2.3100    -1.7680     1.4470 ns         1 FHY      -0.490900
     33 C7          -2.3120    -2.0270     2.7660 c          1 FHY       0.615100
     34 O7          -2.5800    -1.1940     3.6200 o          1 FHY      -0.599100
     35 C8          -1.9630    -3.4480     3.1370 c3         1 FHY      -0.182100
     36 H1           1.0330    -5.0210     1.3780 hc         1 FHY       0.059700
     37 H2           2.4010    -3.8960     1.4560 hc         1 FHY       0.059700
     38 H3           0.9340    -3.5700     2.3700 hc         1 FHY       0.059700
     39 H4           2.3140    -1.9940     0.2990 hn         1 FHY       0.336500
     40 H5           0.2250    -1.7780    -1.7720 h1         1 FHY       0.081700
     41 H6           1.8830    -0.5200    -3.0560 h2         1 FHY       0.024700
     42 H7           3.6980    -3.3730    -4.0110 h1         1 FHY       0.031367
     43 H8           3.1860    -1.7550    -4.5200 h1         1 FHY       0.031367
     44 H9           4.5400    -1.9450    -3.3880 h1         1 FHY       0.031367
     45 H10          2.5390     1.3920    -2.0720 h1         1 FHY       0.040700
     46 H11          4.4800     1.0410     0.2620 h1         1 FHY       0.054200
     47 H12          4.8560     1.7540    -1.3150 h1         1 FHY       0.054200
     48 H13          1.7520     4.7120    -0.0640 hc         1 FHY       0.037033
     49 H14          1.2290     4.3370     1.5850 hc         1 FHY       0.037033
     50 H15          2.8730     4.9040     1.2920 hc         1 FHY       0.037033
     51 H17          2.1170     0.2680     0.7420 h1         1 FHY       0.086700
     52 H18          0.2300     0.6600    -1.6120 h1         1 FHY       0.063700
     53 H19         -1.7870    -0.8540    -1.0680 h2         1 FHY       0.016700
     54 H20         -3.3690     0.4000    -2.1960 h1         1 FHY       0.051700
     55 H21         -4.5770     2.5670    -2.4000 h1         1 FHY       0.022700
     56 H22         -3.4880     3.2800    -1.2070 h1         1 FHY       0.022700
     57 H23         -2.7450     3.6030    -3.3820 ho         1 FHY       0.498000
     58 H24         -4.4460     1.5950     0.4060 h1         1 FHY       0.063700
     59 H25         -6.1470     1.4980    -0.9700 ho         1 FHY       0.504000
     60 H26         -4.1360    -1.3070    -0.4500 h1         1 FHY       0.034700
     61 H27         -5.8590    -0.8470     1.0020 ho         1 FHY       0.443000
     62 H28         -2.5920     0.2650     1.6620 h1         1 FHY       0.123700
     63 H29         -2.0190    -2.5000     0.8150 hn         1 FHY       0.332500
     64 H30         -1.6790    -4.0660     2.2870 hc         1 FHY       0.054700
     65 H31         -1.1450    -3.4480     3.8570 hc         1 FHY       0.054700
     66 H32         -2.8210    -3.9120     3.6240 hc         1 FHY       0.054700
@<TRIPOS>BOND
     1     1     2 1   
     2     1    36 1   
     3     1    37 1   
     4     1    38 1   
     5     2     3 2   
     6     2     4 1   
     7     4     5 1   
     8     4    39 1   
     9     5     6 1   
    10     5    20 1   
    11     5    40 1   
    12     6     7 1   
    13     6     9 1   
    14     6    41 1   
    15     7     8 1   
    16     8    42 1   
    17     8    43 1   
    18     8    44 1   
    19     9    10 1   
    20    10    11 1   
    21    10    19 1   
    22    10    45 1   
    23    11    12 1   
    24    11    46 1   
    25    11    47 1   
    26    12    13 1   
    27    13    14 1   
    28    13    15 1   
    29    13    18 1   
    30    14    48 1   
    31    14    49 1   
    32    14    50 1   
    33    15    16 1   
    34    15    17 1   
    35    18    19 1   
    36    19    20 1   
    37    19    51 1   
    38    20    21 1   
    39    20    52 1   
    40    21    22 1   
    41    22    23 1   
    42    22    31 1   
    43    22    53 1   
    44    23    24 1   
    45    24    25 1   
    46    24    27 1   
    47    24    54 1   
    48    25    26 1   
    49    25    55 1   
    50    25    56 1   
    51    26    57 1   
    52    27    28 1   
    53    27    29 1   
    54    27    58 1   
    55    28    59 1   
    56    29    30 1   
    57    29    31 1   
    58    29    60 1   
    59    30    61 1   
    60    31    32 1   
    61    31    62 1   
    62    32    33 1   
    63    32    63 1   
    64    33    34 2   
    65    33    35 1   
    66    35    64 1   
    67    35    65 1   
    68    35    66 1   
@<TRIPOS>SUBSTRUCTURE
     1 FHY         1 TEMP              0 ****  ****    0 ROOT
