@<TRIPOS>MOLECULE
FHY
   66    68     1     0     0
SMALL
No Charge or Current Charge


@<TRIPOS>ATOM
      1 CBI          1.2880    -4.0070     1.2940 c3         1 FHY      -0.181100
      2 CBG          0.5780    -3.0940     0.3060 c          1 FHY       0.618100
      3 OBH         -0.6210    -3.1760     0.0860 o          1 FHY      -0.668100
      4 NBF          1.3880    -2.1790    -0.3180 ns         1 FHY      -0.461900
      5 CBE          0.9740    -1.1730    -1.3300 c6         1 FHY       0.057700
      6 CBB          2.1230    -0.9350    -2.3600 c6         1 FHY       0.376300
      7 OBC          2.5300    -2.1750    -2.9590 os         1 FHY      -0.440000
      8 CBD          3.4900    -2.0810    -4.0240 c3         1 FHY       0.153900
      9 OBA          3.2590    -0.3570    -1.6840 os         1 FHY      -0.486000
     10 CAZ          2.9820     0.9530    -1.1440 c6         1 FHY       0.084300
     11 CAY          4.2240     1.6130    -0.5050 c6         1 FHY       0.181600
     12 OAX          3.8430     2.8890     0.0690 os         1 FHY      -0.464000
     13 CAS          2.7970     2.8080     1.0860 c6         1 FHY       0.225000
     14 CAT          2.3900     4.2710     1.3940 c3         1 FHY      -0.056100
     15 CAU          3.2580     2.1350     2.4750 c          1 FHY       0.690000
     16 OAV          4.4620     2.0170     2.6770 o          1 FHY      -0.700500
     17 OAW          2.4660     1.3870     3.0400 o          1 FHY      -0.700500
     18 OAR          1.6300     2.1920     0.4590 os         1 FHY      -0.442000
     19 CAQ          1.8750     0.8610    -0.0630 c6         1 FHY       0.153300
     20 CAP          0.6050     0.2130    -0.6890 c6         1 FHY       0.162300
     21 O1          -0.4460     0.0980     0.3020 os         1 FHY      -0.379000
     22 C1          -1.7670    -0.1460    -0.2170 c6         1 FHY       0.381300
     23 O5          -2.2030     1.0220    -0.9370 os         1 FHY      -0.454000
     24 C5          -3.4720     0.8540    -1.6140 c6         1 FHY       0.155300
     25 C6          -3.7390     2.1330    -2.4750 c3         1 FHY       0.170600
     26 O6          -2.6830     2.4180    -3.4130 oh         1 FHY      -0.702000
     27 C4          -4.5870     0.5810    -0.5540 c6         1 FHY       0.093300
     28 O4          -5.8780     0.3390    -1.1630 oh         1 FHY      -0.731000
     29 C3          -4.1770    -0.6480     0.3120 c6         1 FHY       0.156300
     30 O3          -5.1890    -0.8810     1.3030 oh         1 FHY      -0.634000
     31 C2          -2.7630    -0.4450     0.9430 c6         1 FHY       0.094700
     32 N2          -2.3310    -1.6250     1.7280 ns         1 FHY      -0.490900
     33 C7          -2.5020    -1.8080     3.0770 c          1 FHY       0.615100
     34 O7          -3.0220    -0.9710     3.8000 o          1 FHY      -0.599100
     35 C8          -1.9690    -3.1330     3.6090 c3         1 FHY      -0.182100
     36 H1           0.6130    -4.7360     1.7560 hc         1 FHY       0.059700
     37 H2           2.1290    -4.4970     0.7900 hc         1 FHY       0.059700
     38 H3           1.7940    -3.3920     2.0470 hc         1 FHY       0.059700
     39 H4           2.3760    -2.2380    -0.0980 hn         1 FHY       0.336500
     40 H5           0.1070    -1.5620    -1.8820 h1         1 FHY       0.081700
     41 H6           1.7730    -0.2510    -3.1470 h2         1 FHY       0.024700
     42 H7           3.7080    -3.0770    -4.4290 h1         1 FHY       0.031367
     43 H8           3.1050    -1.4560    -4.8400 h1         1 FHY       0.031367
     44 H9           4.4320    -1.6450    -3.6670 h1         1 FHY       0.031367
     45 H10          2.6350     1.5990    -1.9650 h1         1 FHY       0.040700
     46 H11          4.6470     0.9620     0.2730 h1         1 FHY       0.054200
     47 H12          4.9950     1.7800    -1.2700 h1         1 FHY       0.054200
     48 H13          2.0640     4.7950     0.4870 hc         1 FHY       0.037033
     49 H14          1.5670     4.3070     2.1170 hc         1 FHY       0.037033
     50 H15          3.2300     4.8320     1.8220 hc         1 FHY       0.037033
     51 H17          2.2250     0.2150     0.7540 h1         1 FHY       0.086700
     52 H18          0.2570     0.8840    -1.4880 h1         1 FHY       0.063700
     53 H19         -1.7410    -1.0060    -0.9010 h2         1 FHY       0.016700
     54 H20         -3.3980    -0.0070    -2.2960 h1         1 FHY       0.051700
     55 H21         -4.6850     1.9960    -3.0160 h1         1 FHY       0.022700
     56 H22         -3.8730     2.9840    -1.7930 h1         1 FHY       0.022700
     57 H23         -2.9070     3.2740    -3.8460 ho         1 FHY       0.498000
     58 H24         -4.6440     1.4590     0.1080 h1         1 FHY       0.063700
     59 H25         -6.2760     1.2140    -1.3860 ho         1 FHY       0.504000
     60 H26         -4.1220    -1.5230    -0.3530 h1         1 FHY       0.034700
     61 H27         -6.0360    -0.7280     0.8280 ho         1 FHY       0.443000
     62 H28         -2.7870     0.4350     1.6010 h1         1 FHY       0.123700
     63 H29         -1.8400    -2.3660     1.2310 hn         1 FHY       0.332500
     64 H30         -2.3860    -3.9540     3.0150 hc         1 FHY       0.054700
     65 H31         -0.9000    -3.1990     3.3800 hc         1 FHY       0.054700
     66 H32         -2.1570    -3.2640     4.6800 hc         1 FHY       0.054700
@<TRIPOS>BOND
     1     1     2 1   
     2     1    36 1   
     3     1    37 1   
     4     1    38 1   
     5     2     3 2   
     6     2     4 1   
     7     4     5 1   
     8     4    39 1   
     9     5     6 1   
    10     5    20 1   
    11     5    40 1   
    12     6     7 1   
    13     6     9 1   
    14     6    41 1   
    15     7     8 1   
    16     8    42 1   
    17     8    43 1   
    18     8    44 1   
    19     9    10 1   
    20    10    11 1   
    21    10    19 1   
    22    10    45 1   
    23    11    12 1   
    24    11    46 1   
    25    11    47 1   
    26    12    13 1   
    27    13    14 1   
    28    13    15 1   
    29    13    18 1   
    30    14    48 1   
    31    14    49 1   
    32    14    50 1   
    33    15    16 1   
    34    15    17 1   
    35    18    19 1   
    36    19    20 1   
    37    19    51 1   
    38    20    21 1   
    39    20    52 1   
    40    21    22 1   
    41    22    23 1   
    42    22    31 1   
    43    22    53 1   
    44    23    24 1   
    45    24    25 1   
    46    24    27 1   
    47    24    54 1   
    48    25    26 1   
    49    25    55 1   
    50    25    56 1   
    51    26    57 1   
    52    27    28 1   
    53    27    29 1   
    54    27    58 1   
    55    28    59 1   
    56    29    30 1   
    57    29    31 1   
    58    29    60 1   
    59    30    61 1   
    60    31    32 1   
    61    31    62 1   
    62    32    33 1   
    63    32    63 1   
    64    33    34 2   
    65    33    35 1   
    66    35    64 1   
    67    35    65 1   
    68    35    66 1   
@<TRIPOS>SUBSTRUCTURE
     1 FHY         1 TEMP              0 ****  ****    0 ROOT
