@<TRIPOS>MOLECULE
FHZ
   33    34     1     0     0
SMALL
abcg2


@<TRIPOS>ATOM
      1 CAA         -0.8460     0.7690     0.7880 ca         1 FHZ      -0.127300
      2 CAB         -1.5150    -0.3040     1.3760 ca         1 FHZ      -0.065500
      3 CAC         -2.8460    -0.5620     1.0990 ca         1 FHZ      -0.172000
      4 CAD         -3.5510     0.2550     0.2140 ca         1 FHZ       0.141100
      5 CAE         -2.8990     1.3330    -0.3810 ca         1 FHZ      -0.172000
      6 CAF         -1.5630     1.5750    -0.0880 ca         1 FHZ      -0.065500
      7 CAK          1.3360    -0.9380    -0.3180 cc         1 FHZ       0.507300
      8 CAL          1.5020     0.5240    -0.0970 c3         1 FHZ      -0.161000
      9 CAM          2.9630     0.8400     0.2170 c          1 FHZ       0.621100
     10 CAQ          0.6100     1.0240     1.0560 c3         1 FHZ      -0.010100
     11 CAS         -5.5990     0.7330    -0.8840 c3         1 FHZ       0.148900
     12 NAG          1.0180    -2.7470    -1.1950 na         1 FHZ       0.110600
     13 NAH          1.1950    -3.0110     0.0630 nd         1 FHZ      -0.172800
     14 NAI          1.0910    -1.4780    -1.4950 nd         1 FHZ      -0.523800
     15 NAJ          1.4000    -1.8750     0.6430 nc         1 FHZ      -0.354000
     16 NAO          3.5080     1.7430    -0.6130 ns         1 FHZ      -0.411300
     17 NAP          4.8120     2.1730    -0.4440 n8         1 FHZ      -0.717200
     18 OAN          3.5380     0.3160     1.1530 o          1 FHZ      -0.536100
     19 OAR         -4.8420    -0.0670     0.0000 os         1 FHZ      -0.341100
     20 H1          -0.9860    -0.9540     2.0620 ha         1 FHZ       0.116000
     21 H2          -3.3490    -1.3990     1.5670 ha         1 FHZ       0.122000
     22 H3          -3.4110     1.9930    -1.0690 ha         1 FHZ       0.122000
     23 H4          -1.0740     2.4210    -0.5580 ha         1 FHZ       0.116000
     24 H5           1.1960     1.0280    -1.0170 hc         1 FHZ       0.068700
     25 H6           0.7880     2.0950     1.1820 hc         1 FHZ       0.068700
     26 H7           0.9150     0.5390     1.9840 hc         1 FHZ       0.068700
     27 H8          -5.1850     0.7300    -1.8960 h1         1 FHZ       0.040033
     28 H9          -6.5970     0.3020    -0.9140 h1         1 FHZ       0.040033
     29 H10         -5.6730     1.7680    -0.5380 h1         1 FHZ       0.040033
     30 H12          2.9570     2.1220    -1.3700 hn         1 FHZ       0.299500
     31 H13          5.3360     1.9710    -1.2860 hn         1 FHZ       0.397500
     32 H14          4.8140     3.1770    -0.3160 hn         1 FHZ       0.397500
     33 H11          0.8290    -3.4670    -1.8790 hn         1 FHZ       0.405000
@<TRIPOS>BOND
     1     1     2 ar  
     2     1     6 ar  
     3     1    10 1   
     4     2     3 ar  
     5     2    20 1   
     6     3     4 ar  
     7     3    21 1   
     8     4     5 ar  
     9     4    19 1   
    10     5     6 ar  
    11     5    22 1   
    12     6    23 1   
    13     7     8 1   
    14     7    14 2   
    15     7    15 1   
    16     8     9 1   
    17     8    10 1   
    18     8    24 1   
    19     9    16 1   
    20     9    18 2   
    21    10    25 1   
    22    10    26 1   
    23    11    19 1   
    24    11    27 1   
    25    11    28 1   
    26    11    29 1   
    27    12    13 1   
    28    12    14 1   
    29    12    33 1   
    30    13    15 2   
    31    16    17 1   
    32    16    30 1   
    33    17    31 1   
    34    17    32 1   
@<TRIPOS>SUBSTRUCTURE
     1 FHZ         1 TEMP              0 ****  ****    0 ROOT
