@<TRIPOS>MOLECULE
FHZ
   33    34     1     0     0
SMALL
No Charge or Current Charge


@<TRIPOS>ATOM
      1 CAA         -0.8950     0.7250     0.8290 ca         1 FHZ      -0.127300
      2 CAB         -1.5840    -0.3430     1.4350 ca         1 FHZ      -0.065500
      3 CAC         -2.9380    -0.5700     1.1370 ca         1 FHZ      -0.172000
      4 CAD         -3.6190     0.2640     0.2360 ca         1 FHZ       0.141100
      5 CAE         -2.9320     1.3370    -0.3710 ca         1 FHZ      -0.172000
      6 CAF         -1.5760     1.5640    -0.0740 ca         1 FHZ      -0.065500
      7 CAK          1.3950    -0.9660    -0.3150 cc         1 FHZ       0.507300
      8 CAL          1.5120     0.4980    -0.0050 c3         1 FHZ      -0.161000
      9 CAM          2.9680     0.8610     0.2780 c          1 FHZ       0.621100
     10 CAQ          0.5780     0.9710     1.1410 c3         1 FHZ      -0.010100
     11 CAS         -5.7350     0.7850    -0.9230 c3         1 FHZ       0.148900
     12 NAG          1.1830    -2.7660    -1.2640 na         1 FHZ       0.110600
     13 NAH          1.3170    -3.0610     0.0690 nd         1 FHZ      -0.172800
     14 NAI          1.2330    -1.4220    -1.5350 nd         1 FHZ      -0.523800
     15 NAJ          1.4520    -1.9120     0.6650 nc         1 FHZ      -0.354000
     16 NAO          3.5560     1.7310    -0.6490 ns         1 FHZ      -0.411300
     17 NAP          4.9330     2.2180    -0.5890 n8         1 FHZ      -0.717200
     18 OAN          3.5840     0.4260     1.2430 o          1 FHZ      -0.536100
     19 OAR         -4.9480    -0.0080    -0.0170 os         1 FHZ      -0.341100
     20 H1          -1.0700    -1.0020     2.1330 ha         1 FHZ       0.116000
     21 H2          -3.4630    -1.3980     1.6060 ha         1 FHZ       0.122000
     22 H3          -3.4290     2.0010    -1.0720 ha         1 FHZ       0.122000
     23 H4          -1.0550     2.3930    -0.5480 ha         1 FHZ       0.116000
     24 H5           1.2080     1.0460    -0.9040 hc         1 FHZ       0.068700
     25 H6           0.7400     2.0430     1.3140 hc         1 FHZ       0.068700
     26 H7           0.8600     0.4740     2.0780 hc         1 FHZ       0.068700
     27 H8          -5.3080     0.7600    -1.9340 h1         1 FHZ       0.040033
     28 H9          -6.7590     0.3970    -0.9770 h1         1 FHZ       0.040033
     29 H10         -5.7840     1.8290    -0.5860 h1         1 FHZ       0.040033
     30 H12          2.9580     2.0360    -1.4190 hn         1 FHZ       0.299500
     31 H13          5.4650     1.9540    -1.4320 hn         1 FHZ       0.397500
     32 H14          4.9670     3.2480    -0.5310 hn         1 FHZ       0.397500
     33 H11          1.0600    -3.4880    -1.9760 hn         1 FHZ       0.405000
@<TRIPOS>BOND
     1     1     2 ar  
     2     1     6 ar  
     3     1    10 1   
     4     2     3 ar  
     5     2    20 1   
     6     3     4 ar  
     7     3    21 1   
     8     4     5 ar  
     9     4    19 1   
    10     5     6 ar  
    11     5    22 1   
    12     6    23 1   
    13     7     8 1   
    14     7    14 2   
    15     7    15 1   
    16     8     9 1   
    17     8    10 1   
    18     8    24 1   
    19     9    16 1   
    20     9    18 2   
    21    10    25 1   
    22    10    26 1   
    23    11    19 1   
    24    11    27 1   
    25    11    28 1   
    26    11    29 1   
    27    12    13 1   
    28    12    14 1   
    29    12    33 1   
    30    13    15 2   
    31    16    17 1   
    32    16    30 1   
    33    17    31 1   
    34    17    32 1   
@<TRIPOS>SUBSTRUCTURE
     1 FHZ         1 TEMP              0 ****  ****    0 ROOT
