@<TRIPOS>MOLECULE
FI0
   44    44     1     0     0
SMALL
No Charge or Current Charge


@<TRIPOS>ATOM
      1 N11         -2.5430    -0.1820    -0.2990 n7         1 FI0      -0.854400
      2 C12         -3.6870    -0.4050     0.6030 c3         1 FI0       0.160800
      3 C13         -4.9930     0.1950     0.0180 c3         1 FI0      -0.061700
      4 C14         -5.4140    -0.5070    -1.3020 c3         1 FI0      -0.089100
      5 C15         -6.1230     0.1680     1.0850 c3         1 FI0      -0.073400
      6 C16         -1.2450    -0.7220     0.1880 c3         1 FI0       0.120800
      7 C17         -0.0830    -0.2380    -0.7240 c3         1 FI0       0.128300
      8 C18         -7.4200     0.9030     0.6810 c3         1 FI0      -0.087100
      9 O18         -0.3950     1.1200    -1.0550 oh         1 FI0      -0.641000
     10 C19          1.3350    -0.3590    -0.0660 c3         1 FI0       0.137500
     11 N20          1.6360    -1.7560     0.3530 n8         1 FI0      -0.996200
     12 C32          2.4690     0.1820    -0.9850 c3         1 FI0      -0.020100
     13 C33          4.8700    -0.6630    -0.7880 ca         1 FI0      -0.099500
     14 C34          6.1430    -0.6380    -0.1900 ca         1 FI0      -0.112000
     15 C35          6.4050     0.2470     0.8690 ca         1 FI0      -0.113000
     16 C36          5.3940     1.1070     1.3300 ca         1 FI0      -0.112000
     17 C37          4.1220     1.0810     0.7330 ca         1 FI0      -0.099500
     18 C38          3.8500     0.1940    -0.3280 ca         1 FI0      -0.063300
     19 H12         -3.8330    -1.4790     0.7810 h1         1 FI0       0.026200
     20 H12A        -3.4840     0.0660     1.5740 h1         1 FI0       0.026200
     21 H13         -4.7900     1.2480    -0.2150 hc         1 FI0       0.061700
     22 H14         -5.6610    -1.5600    -1.1210 hc         1 FI0       0.033367
     23 H14A        -6.2890    -0.0200    -1.7470 hc         1 FI0       0.033367
     24 H14B        -4.6120    -0.4670    -2.0480 hc         1 FI0       0.033367
     25 H15         -6.3660    -0.8720     1.3350 hc         1 FI0       0.035700
     26 H15A        -5.7490     0.6300     2.0080 hc         1 FI0       0.035700
     27 H16         -1.0570    -0.3670     1.2110 h1         1 FI0       0.030200
     28 H16A        -1.2660    -1.8200     0.2140 h1         1 FI0       0.030200
     29 H17         -0.0970    -0.8470    -1.6390 h1         1 FI0       0.064700
     30 H18         -8.1150     0.9360     1.5280 hc         1 FI0       0.032367
     31 H18A        -7.2040     1.9350     0.3780 hc         1 FI0       0.032367
     32 H18B        -7.9260     0.3930    -0.1470 hc         1 FI0       0.032367
     33 HO18        -1.3640     1.1510    -0.8480 ho         1 FI0       0.448000
     34 H19          1.3240     0.2580     0.8450 h1         1 FI0       0.060700
     35 HN20         0.8820    -2.1070     0.9530 hn         1 FI0       0.395500
     36 H32          2.4900    -0.4050    -1.9110 hc         1 FI0       0.054700
     37 H32A         2.2250     1.2060    -1.2900 hc         1 FI0       0.054700
     38 H34          6.9250    -1.3030    -0.5490 ha         1 FI0       0.109000
     39 H35          7.3900     0.2660     1.3320 ha         1 FI0       0.109000
     40 H36          5.5960     1.7930     2.1490 ha         1 FI0       0.109000
     41 H37          3.3470     1.7540     1.0930 ha         1 FI0       0.107500
     42 H2          -2.7640    -0.6370    -1.1950 hn         1 FI0       0.415000
     43 H1           1.6080    -2.3730    -0.4670 hn         1 FI0       0.395500
     44 H33          4.6780    -1.3510    -1.6080 ha         1 FI0       0.107500
@<TRIPOS>BOND
     1     1     2 1   
     2     1     6 1   
     3     1    42 1   
     4     2     3 1   
     5     2    19 1   
     6     2    20 1   
     7     3     4 1   
     8     3     5 1   
     9     3    21 1   
    10     4    22 1   
    11     4    23 1   
    12     4    24 1   
    13     5     8 1   
    14     5    25 1   
    15     5    26 1   
    16     6     7 1   
    17     6    27 1   
    18     6    28 1   
    19     7     9 1   
    20     7    10 1   
    21     7    29 1   
    22     8    30 1   
    23     8    31 1   
    24     8    32 1   
    25     9    33 1   
    26    10    11 1   
    27    10    12 1   
    28    10    34 1   
    29    11    35 1   
    30    11    43 1   
    31    12    18 1   
    32    12    36 1   
    33    12    37 1   
    34    13    14 ar  
    35    13    18 ar  
    36    13    44 1   
    37    14    15 ar  
    38    14    38 1   
    39    15    16 ar  
    40    15    39 1   
    41    16    17 ar  
    42    16    40 1   
    43    17    18 ar  
    44    17    41 1   
@<TRIPOS>SUBSTRUCTURE
     1 FI0         1 TEMP              0 ****  ****    0 ROOT
