@<TRIPOS>MOLECULE
FI0
   44    44     1     0     0
SMALL
abcg2


@<TRIPOS>ATOM
      1 N11         -2.5270     0.0680    -0.3290 n7         1 FI0      -0.854400
      2 C12         -3.6340    -0.4090     0.4770 c3         1 FI0       0.160800
      3 C13         -4.9780     0.1700     0.0410 c3         1 FI0      -0.061700
      4 C14         -5.3280    -0.2220    -1.3910 c3         1 FI0      -0.089100
      5 C15         -6.0640    -0.2610     1.0300 c3         1 FI0      -0.073400
      6 C16         -1.2440    -0.3730     0.1790 c3         1 FI0       0.120800
      7 C17         -0.0910     0.0500    -0.7310 c3         1 FI0       0.128300
      8 C18         -7.4190     0.3970     0.8070 c3         1 FI0      -0.087100
      9 O18         -0.2090     1.3980    -1.1310 oh         1 FI0      -0.641000
     10 C19          1.2800    -0.2140    -0.0710 c3         1 FI0       0.137500
     11 N20          1.4700    -1.5650     0.4240 n8         1 FI0      -0.996200
     12 C32          2.4160     0.1270    -1.0430 c3         1 FI0      -0.020100
     13 C33          4.5760    -1.0300    -0.4370 ca         1 FI0      -0.099500
     14 C34          5.8150    -1.0500     0.1920 ca         1 FI0      -0.112000
     15 C35          6.2620     0.0650     0.8890 ca         1 FI0      -0.113000
     16 C36          5.4630     1.1990     0.9490 ca         1 FI0      -0.112000
     17 C37          4.2280     1.2150     0.3130 ca         1 FI0      -0.099500
     18 C38          3.7660     0.1020    -0.3880 ca         1 FI0      -0.063300
     19 H12         -3.7030    -1.5110     0.4920 h1         1 FI0       0.026200
     20 H12A        -3.4450    -0.1060     1.5120 h1         1 FI0       0.026200
     21 H13         -4.8900     1.2630     0.0890 hc         1 FI0       0.061700
     22 H14         -5.4210    -1.3070    -1.4870 hc         1 FI0       0.033367
     23 H14A        -6.2710     0.2210    -1.7100 hc         1 FI0       0.033367
     24 H14B        -4.5720     0.1130    -2.1040 hc         1 FI0       0.033367
     25 H15         -6.1750    -1.3500     0.9910 hc         1 FI0       0.035700
     26 H15A        -5.7250    -0.0290     2.0450 hc         1 FI0       0.035700
     27 H16         -1.0990     0.0670     1.1750 h1         1 FI0       0.030200
     28 H16A        -1.2000    -1.4640     0.3170 h1         1 FI0       0.030200
     29 H17         -0.1430    -0.5400    -1.6560 h1         1 FI0       0.064700
     30 H18         -8.1250     0.1110     1.5880 hc         1 FI0       0.032367
     31 H18A        -7.3350     1.4860     0.8240 hc         1 FI0       0.032367
     32 H18B        -7.8630     0.1150    -0.1480 hc         1 FI0       0.032367
     33 HO18        -0.3840     1.9290    -0.3470 ho         1 FI0       0.448000
     34 H19          1.3550     0.4620     0.7930 h1         1 FI0       0.060700
     35 HN20         0.7980    -1.7840     1.1460 hn         1 FI0       0.395500
     36 H32          2.3900    -0.5870    -1.8740 hc         1 FI0       0.054700
     37 H32A         2.2340     1.1130    -1.4730 hc         1 FI0       0.054700
     38 H34          6.4310    -1.9380     0.1390 ha         1 FI0       0.109000
     39 H35          7.2270     0.0500     1.3810 ha         1 FI0       0.109000
     40 H36          5.8030     2.0750     1.4870 ha         1 FI0       0.109000
     41 H37          3.6130     2.1070     0.3600 ha         1 FI0       0.107500
     42 H2          -2.6340    -0.2690    -1.2780 hn         1 FI0       0.415000
     43 H1           1.3240    -2.2360    -0.3220 hn         1 FI0       0.395500
     44 H33          4.2360    -1.9040    -0.9780 ha         1 FI0       0.107500
@<TRIPOS>BOND
     1     1     2 1   
     2     1     6 1   
     3     1    42 1   
     4     2     3 1   
     5     2    19 1   
     6     2    20 1   
     7     3     4 1   
     8     3     5 1   
     9     3    21 1   
    10     4    22 1   
    11     4    23 1   
    12     4    24 1   
    13     5     8 1   
    14     5    25 1   
    15     5    26 1   
    16     6     7 1   
    17     6    27 1   
    18     6    28 1   
    19     7     9 1   
    20     7    10 1   
    21     7    29 1   
    22     8    30 1   
    23     8    31 1   
    24     8    32 1   
    25     9    33 1   
    26    10    11 1   
    27    10    12 1   
    28    10    34 1   
    29    11    35 1   
    30    11    43 1   
    31    12    18 1   
    32    12    36 1   
    33    12    37 1   
    34    13    14 ar  
    35    13    18 ar  
    36    13    44 1   
    37    14    15 ar  
    38    14    38 1   
    39    15    16 ar  
    40    15    39 1   
    41    16    17 ar  
    42    16    40 1   
    43    17    18 ar  
    44    17    41 1   
@<TRIPOS>SUBSTRUCTURE
     1 FI0         1 TEMP              0 ****  ****    0 ROOT
