@<TRIPOS>MOLECULE
FI1
   68    73     1     0     0
SMALL
bcc


@<TRIPOS>ATOM
      1 C1           3.8460     1.2040     1.3150 ca         1 FI1      -0.125000
      2 C2           1.8300     1.9250    -1.7380 ca         1 FI1      -0.073000
      3 C3           4.2340    -0.0820     1.0850 ca         1 FI1      -0.034000
      4 C4           1.3930     3.1930    -1.4820 ca         1 FI1      -0.145000
      5 C5           3.0730    -0.0840    -1.0430 ca         1 FI1       0.011000
      6 C6           2.5660     3.2020     0.6410 ca         1 FI1      -0.125000
      7 C7           2.6470     1.2400    -0.8110 ca         1 FI1      -0.060000
      8 C8           3.0260     1.8910     0.3890 ca         1 FI1       0.016000
      9 C9           3.8280    -0.7250    -0.1020 ca         1 FI1      -0.288500
     10 C10          1.7630     3.8190    -0.2760 ca         1 FI1       0.042400
     11 C11         -5.3590    -1.7860     1.0200 cc         1 FI1      -0.034000
     12 C12         -5.2800    -1.9590    -0.3260 cd         1 FI1      -0.280200
     13 C13         -4.9790    -0.5620     1.5990 cc         1 FI1      -0.271000
     14 C14         -4.5120     0.4430     0.8030 cd         1 FI1       0.081400
     15 C15         -4.8370    -0.9040    -1.1870 c          1 FI1       0.687700
     16 C16          0.8160    -2.1370     0.7520 c          1 FI1       0.688500
     17 C17         -1.2360     0.0590     0.1250 c          1 FI1       0.660100
     18 C18         -0.4620    -4.2180    -0.8060 c6         1 FI1      -0.094400
     19 C19          0.8800    -4.4900    -0.1460 c6         1 FI1      -0.068400
     20 C20         -4.1450     2.8960     0.4840 c6         1 FI1      -0.072400
     21 C21         -1.3020    -3.2390    -0.0010 c6         1 FI1       0.112000
     22 C22         -2.4800     1.4990     1.7200 c6         1 FI1       0.104000
     23 C23         -4.0370     1.3610    -1.4640 c6         1 FI1       0.087000
     24 C24         -1.9070     2.3200    -0.4800 c6         1 FI1       0.089000
     25 C25         -3.9750     1.7060     1.4160 c6         1 FI1      -0.061500
     26 C26          1.6080    -3.1590    -0.0570 c6         1 FI1       0.142500
     27 C27         -3.3850     2.5580    -0.7890 c6         1 FI1      -0.101700
     28 N29         -4.4370     0.2770    -0.5480 n          1 FI1      -0.329000
     29 N30         -0.5260    -2.1990     0.6620 n          1 FI1      -0.452800
     30 N31         -1.7520     1.2540     0.4940 n          1 FI1      -0.467800
     31 N32          2.9670    -3.2860     0.4360 n7         1 FI1      -0.799100
     32 O34          1.3870    -1.2940     1.4240 o          1 FI1      -0.646500
     33 O35         -0.7690    -0.1480    -0.9800 o          1 FI1      -0.593100
     34 O36          4.1030    -2.7600    -1.7190 o          1 FI1      -0.605800
     35 O37          5.3870    -2.7590     0.4490 o          1 FI1      -0.605800
     36 S38          4.1820    -2.4470    -0.3010 sy         1 FI1       1.296200
     37 CL39         1.1570     5.4090     0.0420 cl         1 FI1      -0.117400
     38 H1           4.1560     1.7070     2.2220 ha         1 FI1       0.135000
     39 H2           1.5400     1.4320    -2.6560 ha         1 FI1       0.146000
     40 H3           4.8440    -0.6030     1.8110 ha         1 FI1       0.151000
     41 H4           0.7600     3.7120    -2.1890 ha         1 FI1       0.145000
     42 H5           2.7750    -0.5760    -1.9600 ha         1 FI1       0.155000
     43 H6           2.8460     3.7000     1.5610 ha         1 FI1       0.149000
     44 H11         -5.7150    -2.5910     1.6500 ha         1 FI1       0.137000
     45 H12         -5.5700    -2.8890    -0.7950 ha         1 FI1       0.160000
     46 H13         -5.0230    -0.4120     2.6690 ha         1 FI1       0.146000
     47 H18         -0.2860    -3.8200    -1.8080 hc         1 FI1       0.062200
     48 H18A        -1.0310    -5.1390    -0.9300 hc         1 FI1       0.062200
     49 H19          0.7530    -4.9280     0.8480 hc         1 FI1       0.064200
     50 H19A         1.4670    -5.1890    -0.7420 hc         1 FI1       0.064200
     51 H20         -5.2010     3.0800     0.2750 hc         1 FI1       0.059700
     52 H20A        -3.7460     3.7980     0.9530 hc         1 FI1       0.059700
     53 H21         -2.0350    -2.7640    -0.6570 h1         1 FI1       0.048700
     54 H21A        -1.8670    -3.7770     0.7670 h1         1 FI1       0.048700
     55 H22         -2.0880     2.4040     2.1950 h1         1 FI1       0.060700
     56 H22A        -2.3450     0.6880     2.4310 h1         1 FI1       0.060700
     57 H23         -4.9360     1.6890    -1.9900 h1         1 FI1       0.076200
     58 H23A        -3.3690     0.9370    -2.2120 h1         1 FI1       0.076200
     59 H24         -1.3610     2.0630    -1.3820 h1         1 FI1       0.071200
     60 H24A        -1.4640     3.2360    -0.0760 h1         1 FI1       0.071200
     61 H25         -4.4910     1.8730     2.3630 hc         1 FI1       0.078700
     62 H26          1.6550    -2.7620    -1.0770 h1         1 FI1       0.094700
     63 H27         -3.4440     3.3860    -1.5000 hc         1 FI1       0.073700
     64 HN32         3.0570    -3.2750     1.4470 hn         1 FI1       0.437800
     65 C28         -1.2640    -1.0720     1.1630 c3         1 FI1       0.013000
     66 O33         -4.7950    -0.9810    -2.4140 o          1 FI1      -0.633500
     67 H28         -0.8600    -0.7450     2.1200 h1         1 FI1       0.079700
     68 H28A        -2.2960    -1.3810     1.3500 h1         1 FI1       0.079700
@<TRIPOS>BOND
     1     1     3 ar  
     2     1     8 ar  
     3     1    38 1   
     4     2     4 ar  
     5     2     7 ar  
     6     2    39 1   
     7     3     9 ar  
     8     3    40 1   
     9     4    10 ar  
    10     4    41 1   
    11     5     7 ar  
    12     5     9 ar  
    13     5    42 1   
    14     6     8 ar  
    15     6    10 ar  
    16     6    43 1   
    17     7     8 ar  
    18     9    36 1   
    19    10    37 1   
    20    11    12 2   
    21    11    13 1   
    22    11    44 1   
    23    12    15 1   
    24    12    45 1   
    25    13    14 2   
    26    13    46 1   
    27    14    25 1   
    28    14    28 1   
    29    15    28 1   
    30    15    66 2   
    31    16    26 1   
    32    16    29 1   
    33    16    32 2   
    34    17    30 1   
    35    17    33 2   
    36    17    65 1   
    37    18    19 1   
    38    18    21 1   
    39    18    47 1   
    40    18    48 1   
    41    19    26 1   
    42    19    49 1   
    43    19    50 1   
    44    20    25 1   
    45    20    27 1   
    46    20    51 1   
    47    20    52 1   
    48    21    29 1   
    49    21    53 1   
    50    21    54 1   
    51    22    25 1   
    52    22    30 1   
    53    22    55 1   
    54    22    56 1   
    55    23    27 1   
    56    23    28 1   
    57    23    57 1   
    58    23    58 1   
    59    24    27 1   
    60    24    30 1   
    61    24    59 1   
    62    24    60 1   
    63    25    61 1   
    64    26    31 1   
    65    26    62 1   
    66    27    63 1   
    67    29    65 1   
    68    31    36 1   
    69    31    64 1   
    70    34    36 2   
    71    35    36 2   
    72    65    67 1   
    73    65    68 1   
@<TRIPOS>SUBSTRUCTURE
     1 FI1         1 TEMP              0 ****  ****    0 ROOT
