@<TRIPOS>MOLECULE
FI1
   68    73     1     0     0
SMALL
No Charge or Current Charge


@<TRIPOS>ATOM
      1 C1           3.7140     1.2610     0.9340 ca         1 FI1      -0.107000
      2 C2           1.8410     1.4670    -2.2800 ca         1 FI1      -0.055000
      3 C3           4.1860    -0.0620     0.8880 ca         1 FI1      -0.016000
      4 C4           1.3260     2.7730    -2.2030 ca         1 FI1      -0.127000
      5 C5           3.1170    -0.3630    -1.2850 ca         1 FI1       0.029000
      6 C6           2.4090     3.0780    -0.0430 ca         1 FI1      -0.107000
      7 C7           2.6340     0.9580    -1.2320 ca         1 FI1      -0.060000
      8 C8           2.9230     1.7690    -0.1120 ca         1 FI1       0.016000
      9 C9           3.8700    -0.8870    -0.2120 ca         1 FI1      -0.288500
     10 C10          1.6070     3.5730    -1.0830 ca         1 FI1       0.134000
     11 C11         -5.4440    -1.8260     0.3630 cc         1 FI1      -0.084000
     12 C12         -5.1430    -1.7480    -0.9740 cd         1 FI1      -0.330200
     13 C13         -5.1680    -0.6920     1.1840 cc         1 FI1      -0.321000
     14 C14         -4.6060     0.4520     0.6520 cd         1 FI1       0.081400
     15 C15         -4.5550    -0.5480    -1.5930 c          1 FI1       0.545200
     16 C16          0.8960    -2.1460     1.0380 c          1 FI1       0.546000
     17 C17         -1.2570     0.1780     0.6050 c          1 FI1       0.593100
     18 C18         -0.3740    -4.2000    -0.6350 c6         1 FI1      -0.094400
     19 C19          1.0520    -4.4590    -0.1050 c6         1 FI1      -0.068400
     20 C20         -4.3290     2.9510     0.8480 c6         1 FI1      -0.072400
     21 C21         -1.2210    -3.4040     0.3830 c6         1 FI1       0.112000
     22 C22         -2.8600     1.3870     2.1850 c6         1 FI1       0.104000
     23 C23         -3.7310     1.7870    -1.3130 c6         1 FI1       0.087000
     24 C24         -1.8760     2.6120     0.2730 c6         1 FI1       0.089000
     25 C25         -4.2800     1.6010     1.5980 c6         1 FI1      -0.061500
     26 C26          1.7640    -3.1180     0.1670 c6         1 FI1       0.142500
     27 C27         -3.3000     2.8830    -0.2990 c6         1 FI1      -0.101700
     28 N29         -4.2920     0.5310    -0.7190 n          1 FI1      -0.262000
     29 N30         -0.5130    -2.2370     0.9650 n          1 FI1      -0.385800
     30 N31         -1.8510     1.3680     1.0900 n          1 FI1      -0.400800
     31 N32          3.1530    -3.3230     0.7000 n7         1 FI1      -0.854300
     32 O34          1.4290    -1.2840     1.7270 o          1 FI1      -0.571000
     33 O35         -0.6840     0.1670    -0.4790 o          1 FI1      -0.593100
     34 O36          4.2460    -3.1850    -1.5590 o          1 FI1      -0.535000
     35 O37          5.5810    -2.7860     0.5890 o          1 FI1      -0.535000
     36 S38          4.3690    -2.6160    -0.2140 sy         1 FI1       1.154600
     37 Cl39         0.9390     5.1960    -0.9800 cl         1 FI1      -0.209000
     38 H1           3.9460     1.8820     1.7960 ha         1 FI1       0.117000
     39 H2           1.6080     0.8480    -3.1440 ha         1 FI1       0.128000
     40 H3           4.7720    -0.4460     1.7210 ha         1 FI1       0.133000
     41 H4           0.7040     3.1610    -3.0050 ha         1 FI1       0.127000
     42 H5           2.8780    -0.9850    -2.1460 ha         1 FI1       0.137000
     43 H6           2.6200     3.7060     0.8180 ha         1 FI1       0.131000
     44 H11         -5.8830    -2.7230     0.7990 ha         1 FI1       0.187000
     45 H12         -5.3310    -2.5690    -1.6560 ha         1 FI1       0.210000
     46 H13         -5.4010    -0.7540     2.2440 ha         1 FI1       0.196000
     47 H18         -0.3210    -3.6420    -1.5800 hc         1 FI1       0.062200
     48 H18A        -0.8730    -5.1510    -0.8650 hc         1 FI1       0.062200
     49 H19          1.0080    -5.0550     0.8180 hc         1 FI1       0.064200
     50 H19A         1.6250    -5.0460    -0.8360 hc         1 FI1       0.064200
     51 H20         -5.3380     3.1370     0.4540 hc         1 FI1       0.059700
     52 H20A        -4.0940     3.7800     1.5300 hc         1 FI1       0.059700
     53 H21         -2.1490    -3.0690    -0.1040 h1         1 FI1       0.048700
     54 H21A        -1.5090    -4.0730     1.2060 h1         1 FI1       0.048700
     55 H22         -2.6220     2.2080     2.8760 h1         1 FI1       0.060700
     56 H22A        -2.8430     0.4630     2.7760 h1         1 FI1       0.060700
     57 H23         -4.5050     2.2120    -1.9680 h1         1 FI1       0.076200
     58 H23A        -2.8770     1.5360    -1.9590 h1         1 FI1       0.076200
     59 H24         -1.1490     2.5600    -0.5500 h1         1 FI1       0.071200
     60 H24A        -1.5710     3.4570     0.9060 h1         1 FI1       0.071200
     61 H25         -5.0050     1.6330     2.4230 hc         1 FI1       0.078700
     62 H26          1.7970    -2.6120    -0.8080 h1         1 FI1       0.094700
     63 H27         -3.2760     3.8490    -0.8230 hc         1 FI1       0.073700
     64 HN32         3.2350    -2.7440     1.5380 hn         1 FI1       0.493000
     65 C28         -1.3340    -1.1040     1.4770 c3         1 FI1       0.013000
     66 O33         -4.3150    -0.5020    -2.7930 o          1 FI1      -0.558000
     67 H28         -1.0050    -0.8430     2.4900 h1         1 FI1       0.079700
     68 H28A        -2.3870    -1.4040     1.5320 h1         1 FI1       0.079700
@<TRIPOS>BOND
     1     1     3 ar  
     2     1     8 ar  
     3     1    38 1   
     4     2     4 ar  
     5     2     7 ar  
     6     2    39 1   
     7     3     9 ar  
     8     3    40 1   
     9     4    10 ar  
    10     4    41 1   
    11     5     7 ar  
    12     5     9 ar  
    13     5    42 1   
    14     6     8 ar  
    15     6    10 ar  
    16     6    43 1   
    17     7     8 ar  
    18     9    36 1   
    19    10    37 1   
    20    11    12 2   
    21    11    13 1   
    22    11    44 1   
    23    12    15 1   
    24    12    45 1   
    25    13    14 2   
    26    13    46 1   
    27    14    25 1   
    28    14    28 1   
    29    15    28 1   
    30    15    66 2   
    31    16    26 1   
    32    16    29 1   
    33    16    32 2   
    34    17    30 1   
    35    17    33 2   
    36    17    65 1   
    37    18    19 1   
    38    18    21 1   
    39    18    47 1   
    40    18    48 1   
    41    19    26 1   
    42    19    49 1   
    43    19    50 1   
    44    20    25 1   
    45    20    27 1   
    46    20    51 1   
    47    20    52 1   
    48    21    29 1   
    49    21    53 1   
    50    21    54 1   
    51    22    25 1   
    52    22    30 1   
    53    22    55 1   
    54    22    56 1   
    55    23    27 1   
    56    23    28 1   
    57    23    57 1   
    58    23    58 1   
    59    24    27 1   
    60    24    30 1   
    61    24    59 1   
    62    24    60 1   
    63    25    61 1   
    64    26    31 1   
    65    26    62 1   
    66    27    63 1   
    67    29    65 1   
    68    31    36 1   
    69    31    64 1   
    70    34    36 2   
    71    35    36 2   
    72    65    67 1   
    73    65    68 1   
@<TRIPOS>SUBSTRUCTURE
     1 FI1         1 TEMP              0 ****  ****    0 ROOT
