@<TRIPOS>MOLECULE
FI3
   86    90     1     0     0
SMALL
abcg2


@<TRIPOS>ATOM
      1 CAV        -51.0060    -5.3670   -18.0810 c3         1 FI3      -0.084100
      2 CAW        -50.7470    -5.5000   -19.5820 c3         1 FI3      -0.157400
      3 CBL        -50.2480    -4.1990   -20.1840 c          1 FI3       0.598100
      4 OAF        -49.2370    -3.6440   -19.7650 o          1 FI3      -0.587100
      5 NBF        -51.0070    -3.7180   -21.2080 ns         1 FI3      -0.150000
      6 CBO        -50.8280    -2.5620   -21.9900 ca         1 FI3      -0.029000
      7 CAO        -51.6330    -2.4240   -23.1230 ca         1 FI3      -0.146000
      8 CAM        -51.5520    -1.2900   -23.9160 ca         1 FI3      -0.072500
      9 CAN        -49.9270    -1.5420   -21.6720 ca         1 FI3      -0.146000
     10 CAL        -49.8640    -0.4090   -22.4730 ca         1 FI3      -0.072500
     11 CBN        -50.6700    -0.2610   -23.5990 ca         1 FI3      -0.127300
     12 CBC        -50.5730     1.0100   -24.4150 c3         1 FI3       0.150300
     13 NCB        -51.7050     1.2470   -25.3160 n          1 FI3      -0.412300
     14 CBM        -51.5030     0.8550   -26.6580 c          1 FI3       0.667100
     15 OAG        -50.4220     0.3970   -27.0100 o          1 FI3      -0.603100
     16 NBG        -52.5600     0.9950   -27.4970 ns         1 FI3      -0.172000
     17 CBX        -52.4970     0.6240   -28.8500 ca         1 FI3       0.066000
     18 CBU        -52.5680     1.6060   -29.8400 ca         1 FI3       0.041500
     19 CLI        -52.6770     3.2830   -29.3850 cl         1 FI3      -0.171500
     20 CBT        -52.4130    -0.7180   -29.2290 ca         1 FI3       0.041500
     21 CLH        -52.4170    -1.9700   -28.0230 cl         1 FI3      -0.171500
     22 CBV        -52.3640    -1.0730   -30.5820 ca         1 FI3       0.197100
     23 OBI        -52.2690    -2.3890   -30.8660 os         1 FI3      -0.328600
     24 CAA        -52.2200    -2.7940   -32.2380 c3         1 FI3       0.149900
     25 CAU        -52.4310    -0.0800   -31.5560 ca         1 FI3      -0.284000
     26 CBW        -52.5450     1.2610   -31.1960 ca         1 FI3       0.197100
     27 OBJ        -52.6240     2.2700   -32.0880 os         1 FI3      -0.328600
     28 CAB        -52.5940     1.9560   -33.4830 c3         1 FI3       0.149900
     29 C4         -52.8910     1.7290   -24.7550 ca         1 FI3       0.294900
     30 C5         -53.0660     1.7310   -23.3780 ca         1 FI3      -0.330000
     31 N3         -53.8540     2.2010   -25.5720 nb         1 FI3      -0.308000
     32 C2         -54.9580     2.6650   -24.9950 ca         1 FI3       0.200900
     33 N1         -55.2410     2.6910   -23.7050 nb         1 FI3      -0.277000
     34 C6         -54.2920     2.1900   -22.8800 ca         1 FI3       0.405900
     35 NBH        -54.6060     2.1640   -21.5620 nu         1 FI3      -0.941900
     36 CBP        -53.8500     1.5760   -20.5200 ca         1 FI3       0.234000
     37 CAQ        -53.3250     0.2910   -20.6230 ca         1 FI3      -0.093000
     38 CAS        -52.5770    -0.2590   -19.5930 ca         1 FI3      -0.154000
     39 CAP        -53.6420     2.2800   -19.3350 ca         1 FI3      -0.093000
     40 CAR        -52.9190     1.7240   -18.2920 ca         1 FI3      -0.154000
     41 CBR        -52.3510     0.4390   -18.3940 ca         1 FI3       0.299000
     42 NCA        -51.6260    -0.1190   -17.3360 nh         1 FI3      -0.785400
     43 CAZ        -50.9350    -1.3820   -17.5870 c6         1 FI3       0.197300
     44 CAX        -50.4400    -2.0090   -16.2970 c6         1 FI3       0.155300
     45 NBZ        -49.5900    -1.0940   -15.5500 n3         1 FI3      -0.711600
     46 CAC        -49.0600    -1.7160   -14.3470 c3         1 FI3       0.151100
     47 CAY        -50.3420     0.1140   -15.2440 c6         1 FI3       0.155300
     48 CBA        -50.8270     0.7920   -16.5120 c6         1 FI3       0.197300
     49 H1         -51.3120    -6.3270   -17.6640 hc         1 FI3       0.044367
     50 H2         -50.1050    -5.0390   -17.5620 hc         1 FI3       0.044367
     51 H3         -51.7970    -4.6410   -17.8830 hc         1 FI3       0.044367
     52 H4         -51.6460    -5.8470   -20.0940 hc         1 FI3       0.061200
     53 H5         -49.9660    -6.2450   -19.7570 hc         1 FI3       0.061200
     54 H6         -51.7930    -4.2910   -21.4760 hn         1 FI3       0.149000
     55 H7         -52.3370    -3.2090   -23.3770 ha         1 FI3       0.129000
     56 H8         -52.2000    -1.2060   -24.7790 ha         1 FI3       0.120500
     57 H9         -49.3090    -1.6260   -20.7950 ha         1 FI3       0.129000
     58 H10        -49.1820     0.3870   -22.1970 ha         1 FI3       0.120500
     59 H11        -49.6830     0.9840   -25.0360 h1         1 FI3       0.080200
     60 H12        -50.4800     1.8700   -23.7510 h1         1 FI3       0.080200
     61 H13        -53.3330     1.5710   -27.1470 hn         1 FI3       0.223000
     62 H14        -52.1450    -3.8770   -32.2190 h1         1 FI3       0.045700
     63 H15        -53.1290    -2.4950   -32.7640 h1         1 FI3       0.045700
     64 H16        -51.3460    -2.3700   -32.7370 h1         1 FI3       0.045700
     65 H17        -52.4020    -0.3510   -32.5970 ha         1 FI3       0.126000
     66 H18        -52.6710     2.9100   -33.9980 h1         1 FI3       0.045700
     67 H19        -51.6560     1.4650   -33.7510 h1         1 FI3       0.045700
     68 H20        -53.4370     1.3190   -33.7560 h1         1 FI3       0.045700
     69 H21        -52.3190     1.3580   -22.7040 ha         1 FI3       0.152000
     70 H22        -55.7120     3.0640   -25.6660 h5         1 FI3       0.049100
     71 H23        -55.4570     2.6460   -21.3130 hn         1 FI3       0.513000
     72 H24        -53.4820    -0.2920   -21.5210 ha         1 FI3       0.120500
     73 H25        -52.1660    -1.2430   -19.7450 ha         1 FI3       0.119500
     74 H26        -54.0510     3.2770   -19.2290 ha         1 FI3       0.120500
     75 H27        -52.7990     2.3080   -17.3930 ha         1 FI3       0.119500
     76 H28        -51.6230    -2.0850   -18.0530 h1         1 FI3       0.048200
     77 H29        -50.0910    -1.2360   -18.2750 h1         1 FI3       0.048200
     78 H30        -51.3080    -2.3230   -15.6890 h1         1 FI3       0.040950
     79 H31        -49.8690    -2.9050   -16.5410 h1         1 FI3       0.040950
     80 H33        -48.4070    -1.0140   -13.8260 h1         1 FI3       0.033033
     81 H34        -49.8580    -2.0260   -13.6500 h1         1 FI3       0.033033
     82 H35        -48.4790    -2.6000   -14.6150 h1         1 FI3       0.033033
     83 H36        -49.6980     0.8080   -14.7000 h1         1 FI3       0.040950
     84 H37        -51.2090    -0.1140   -14.5990 h1         1 FI3       0.040950
     85 H38        -49.9630     1.1580   -17.0860 h1         1 FI3       0.048200
     86 H39        -51.4240     1.6520   -16.2220 h1         1 FI3       0.048200
@<TRIPOS>BOND
     1     1     2 1   
     2     1    49 1   
     3     1    50 1   
     4     1    51 1   
     5     2     3 1   
     6     2    52 1   
     7     2    53 1   
     8     3     4 2   
     9     3     5 1   
    10     5     6 1   
    11     5    54 1   
    12     6     7 ar  
    13     6     9 ar  
    14     7     8 ar  
    15     7    55 1   
    16     8    11 ar  
    17     8    56 1   
    18     9    10 ar  
    19     9    57 1   
    20    10    11 ar  
    21    10    58 1   
    22    11    12 1   
    23    12    13 1   
    24    12    59 1   
    25    12    60 1   
    26    13    14 1   
    27    13    29 1   
    28    14    15 2   
    29    14    16 1   
    30    16    17 1   
    31    16    61 1   
    32    17    18 ar  
    33    17    20 ar  
    34    18    19 1   
    35    18    26 ar  
    36    20    21 1   
    37    20    22 ar  
    38    22    23 1   
    39    22    25 ar  
    40    23    24 1   
    41    24    62 1   
    42    24    63 1   
    43    24    64 1   
    44    25    26 ar  
    45    25    65 1   
    46    26    27 1   
    47    27    28 1   
    48    28    66 1   
    49    28    67 1   
    50    28    68 1   
    51    29    30 ar  
    52    29    31 ar  
    53    30    34 ar  
    54    30    69 1   
    55    31    32 ar  
    56    32    33 ar  
    57    32    70 1   
    58    33    34 ar  
    59    34    35 1   
    60    35    36 1   
    61    35    71 1   
    62    36    37 ar  
    63    36    39 ar  
    64    37    38 ar  
    65    37    72 1   
    66    38    41 ar  
    67    38    73 1   
    68    39    40 ar  
    69    39    74 1   
    70    40    41 ar  
    71    40    75 1   
    72    41    42 1   
    73    42    43 1   
    74    42    48 1   
    75    43    44 1   
    76    43    76 1   
    77    43    77 1   
    78    44    45 1   
    79    44    78 1   
    80    44    79 1   
    81    45    46 1   
    82    45    47 1   
    83    46    80 1   
    84    46    81 1   
    85    46    82 1   
    86    47    48 1   
    87    47    83 1   
    88    47    84 1   
    89    48    85 1   
    90    48    86 1   
@<TRIPOS>SUBSTRUCTURE
     1 FI3         1 TEMP              0 ****  ****    0 ROOT
