@<TRIPOS>MOLECULE
FI3
   86    90     1     0     0
SMALL
No Charge or Current Charge


@<TRIPOS>ATOM
      1 CAV        -45.3790    -1.9250   -17.9510 c3         1 FI3      -0.084100
      2 CAW        -44.4190    -1.2510   -18.9620 c3         1 FI3      -0.157400
      3 CBL        -45.1530    -0.2340   -19.8500 c          1 FI3       0.598100
      4 OAF        -45.4930     0.8610   -19.4130 o          1 FI3      -0.587100
      5 NBF        -45.3700    -0.6620   -21.1570 ns         1 FI3      -0.150000
      6 CBO        -45.9990    -0.0450   -22.2760 ca         1 FI3      -0.029000
      7 CAO        -46.2760    -0.8460   -23.4020 ca         1 FI3      -0.146000
      8 CAM        -46.9310    -0.3090   -24.5260 ca         1 FI3      -0.072500
      9 CAN        -46.3610     1.3190   -22.3080 ca         1 FI3      -0.146000
     10 CAL        -47.0100     1.8580   -23.4340 ca         1 FI3      -0.072500
     11 CBN        -47.3090     1.0460   -24.5450 ca         1 FI3      -0.127300
     12 CBC        -48.0940     1.6120   -25.7240 c3         1 FI3       0.150300
     13 NCB        -49.5540     1.5940   -25.4410 n          1 FI3      -0.412300
     14 CBM        -50.3460     0.6130   -26.0820 c          1 FI3       0.667100
     15 OAG        -49.8620    -0.3840   -26.6020 o          1 FI3      -0.603100
     16 NBG        -51.7010     0.8710   -26.1300 ns         1 FI3      -0.172000
     17 CBX        -52.7640     0.0350   -26.5410 ca         1 FI3       0.066000
     18 CBU        -53.5420     0.4000   -27.6570 ca         1 FI3       0.041500
     19 ClI        -53.1400     1.8680   -28.5640 cl         1 FI3      -0.171500
     20 CBT        -53.0950    -1.1230   -25.8030 ca         1 FI3       0.041500
     21 ClH        -52.1730    -1.5550   -24.3520 cl         1 FI3      -0.171500
     22 CBV        -54.1980    -1.9160   -26.1880 ca         1 FI3       0.197100
     23 OBI        -54.5090    -3.0250   -25.4200 os         1 FI3      -0.328600
     24 CAA        -55.6590    -3.8510   -25.6770 c3         1 FI3       0.149900
     25 CAU        -54.9590    -1.5590   -27.3220 ca         1 FI3      -0.284000
     26 CBW        -54.6310    -0.4010   -28.0590 ca         1 FI3       0.197100
     27 OBJ        -55.3560    -0.0140   -29.1730 os         1 FI3      -0.328600
     28 CAB        -56.4720    -0.7720   -29.6750 c3         1 FI3       0.149900
     29 C4         -50.1000     2.6410   -24.6220 ca         1 FI3       0.294900
     30 C5         -51.1790     2.3970   -23.7600 ca         1 FI3      -0.330000
     31 N3         -49.6460     3.8970   -24.8060 nb         1 FI3      -0.308000
     32 C2         -50.2390     4.8720   -24.0850 ca         1 FI3       0.200900
     33 N1         -51.2480     4.7190   -23.2030 nb         1 FI3      -0.277000
     34 C6         -51.7130     3.4730   -23.0520 ca         1 FI3       0.405900
     35 NBH        -52.6900     3.2940   -22.0900 nu         1 FI3      -0.941900
     36 CBP        -53.2960     2.1330   -21.6010 ca         1 FI3       0.234000
     37 CAQ        -53.9170     1.2150   -22.4700 ca         1 FI3      -0.093000
     38 CAS        -54.4490     0.0090   -21.9730 ca         1 FI3      -0.154000
     39 CAP        -53.2470     1.8500   -20.2250 ca         1 FI3      -0.093000
     40 CAR        -53.7690     0.6390   -19.7300 ca         1 FI3      -0.154000
     41 CBR        -54.3620    -0.2960   -20.5990 ca         1 FI3       0.299000
     42 NCA        -54.8240    -1.5270   -20.0830 nh         1 FI3      -0.785400
     43 CAZ        -56.0030    -2.2250   -20.6930 c6         1 FI3       0.197300
     44 CAX        -56.6200    -3.3000   -19.7370 c6         1 FI3       0.155300
     45 NBZ        -55.6080    -4.2860   -19.2440 n3         1 FI3      -0.711600
     46 CAC        -56.1990    -5.3310   -18.3790 c3         1 FI3       0.151100
     47 CAY        -54.4760    -3.5640   -18.5840 c6         1 FI3       0.155300
     48 CBA        -53.8230    -2.4850   -19.5110 c6         1 FI3       0.197300
     49 H1         -44.8390    -2.6520   -17.3320 hc         1 FI3       0.044367
     50 H2         -45.8310    -1.1790   -17.2840 hc         1 FI3       0.044367
     51 H3         -46.1870    -2.4530   -18.4770 hc         1 FI3       0.044367
     52 H4         -43.9670    -2.0360   -19.5830 hc         1 FI3       0.061200
     53 H5         -43.6360    -0.7290   -18.3950 hc         1 FI3       0.061200
     54 H6         -45.0350    -1.5990   -21.3450 hn         1 FI3       0.149000
     55 H7         -46.0040    -1.9000   -23.3990 ha         1 FI3       0.129000
     56 H8         -47.1610    -0.9530   -25.3740 ha         1 FI3       0.120500
     57 H9         -46.1540     1.9790   -21.4700 ha         1 FI3       0.129000
     58 H10        -47.2970     2.9070   -23.4320 ha         1 FI3       0.120500
     59 H11        -47.8680     1.0340   -26.6300 h1         1 FI3       0.080200
     60 H12        -47.7560     2.6370   -25.9280 h1         1 FI3       0.080200
     61 H13        -51.9790     1.7710   -25.7640 hn         1 FI3       0.223000
     62 H14        -55.7240    -4.6540   -24.9320 h1         1 FI3       0.045700
     63 H15        -56.5830    -3.2610   -25.6220 h1         1 FI3       0.045700
     64 H16        -55.5920    -4.3140   -26.6700 h1         1 FI3       0.045700
     65 H17        -55.8020    -2.1710   -27.6220 ha         1 FI3       0.126000
     66 H18        -56.8880    -0.2880   -30.5670 h1         1 FI3       0.045700
     67 H19        -56.1610    -1.7870   -29.9550 h1         1 FI3       0.045700
     68 H20        -57.2680    -0.8400   -28.9230 h1         1 FI3       0.045700
     69 H21        -51.5240     1.3870   -23.5790 ha         1 FI3       0.152000
     70 H22        -49.8630     5.8840   -24.2280 h5         1 FI3       0.049100
     71 H23        -52.7670     4.1020   -21.4700 hn         1 FI3       0.513000
     72 H24        -53.9740     1.4300   -23.5340 ha         1 FI3       0.120500
     73 H25        -54.8970    -0.6980   -22.6650 ha         1 FI3       0.119500
     74 H26        -52.7710     2.5490   -19.5420 ha         1 FI3       0.120500
     75 H27        -53.7020     0.4190   -18.6680 ha         1 FI3       0.119500
     76 H28        -56.7870    -1.4950   -20.9480 h1         1 FI3       0.048200
     77 H29        -55.7000    -2.7230   -21.6260 h1         1 FI3       0.048200
     78 H30        -57.0840    -2.7800   -18.8850 h1         1 FI3       0.040950
     79 H31        -57.4290    -3.8200   -20.2720 h1         1 FI3       0.040950
     80 H33        -55.4370    -6.0660   -18.0840 h1         1 FI3       0.033033
     81 H34        -56.6250    -4.8910   -17.4670 h1         1 FI3       0.033033
     82 H35        -57.0000    -5.8670   -18.9090 h1         1 FI3       0.033033
     83 H36        -53.6950    -4.2770   -18.2780 h1         1 FI3       0.040950
     84 H37        -54.8290    -3.0650   -17.6690 h1         1 FI3       0.040950
     85 H38        -53.2990    -2.9990   -20.3300 h1         1 FI3       0.048200
     86 H39        -53.0600    -1.9440   -18.9290 h1         1 FI3       0.048200
@<TRIPOS>BOND
     1     1     2 1   
     2     1    49 1   
     3     1    50 1   
     4     1    51 1   
     5     2     3 1   
     6     2    52 1   
     7     2    53 1   
     8     3     4 2   
     9     3     5 1   
    10     5     6 1   
    11     5    54 1   
    12     6     7 ar  
    13     6     9 ar  
    14     7     8 ar  
    15     7    55 1   
    16     8    11 ar  
    17     8    56 1   
    18     9    10 ar  
    19     9    57 1   
    20    10    11 ar  
    21    10    58 1   
    22    11    12 1   
    23    12    13 1   
    24    12    59 1   
    25    12    60 1   
    26    13    14 1   
    27    13    29 1   
    28    14    15 2   
    29    14    16 1   
    30    16    17 1   
    31    16    61 1   
    32    17    18 ar  
    33    17    20 ar  
    34    18    19 1   
    35    18    26 ar  
    36    20    21 1   
    37    20    22 ar  
    38    22    23 1   
    39    22    25 ar  
    40    23    24 1   
    41    24    62 1   
    42    24    63 1   
    43    24    64 1   
    44    25    26 ar  
    45    25    65 1   
    46    26    27 1   
    47    27    28 1   
    48    28    66 1   
    49    28    67 1   
    50    28    68 1   
    51    29    30 ar  
    52    29    31 ar  
    53    30    34 ar  
    54    30    69 1   
    55    31    32 ar  
    56    32    33 ar  
    57    32    70 1   
    58    33    34 ar  
    59    34    35 1   
    60    35    36 1   
    61    35    71 1   
    62    36    37 ar  
    63    36    39 ar  
    64    37    38 ar  
    65    37    72 1   
    66    38    41 ar  
    67    38    73 1   
    68    39    40 ar  
    69    39    74 1   
    70    40    41 ar  
    71    40    75 1   
    72    41    42 1   
    73    42    43 1   
    74    42    48 1   
    75    43    44 1   
    76    43    76 1   
    77    43    77 1   
    78    44    45 1   
    79    44    78 1   
    80    44    79 1   
    81    45    46 1   
    82    45    47 1   
    83    46    80 1   
    84    46    81 1   
    85    46    82 1   
    86    47    48 1   
    87    47    83 1   
    88    47    84 1   
    89    48    85 1   
    90    48    86 1   
@<TRIPOS>SUBSTRUCTURE
     1 FI3         1 TEMP              0 ****  ****    0 ROOT
