@<TRIPOS>MOLECULE
FI4
   46    49     1     0     0
SMALL
bcc


@<TRIPOS>ATOM
      1 FAD          3.6730     0.0070     2.0390 f          1 FI4      -0.120900
      2 CAU          4.4240    -0.1000     0.9430 ca         1 FI4       0.173900
      3 CAL          5.6570     0.5150     0.9020 ca         1 FI4      -0.215000
      4 CAT          6.4050     0.3800    -0.2540 ca         1 FI4       0.165900
      5 FAC          7.6060     0.9680    -0.3060 f          1 FI4      -0.134900
      6 CAH          5.9570    -0.3390    -1.3430 ca         1 FI4      -0.183000
      7 CAK          4.7100    -0.9430    -1.2720 ca         1 FI4      -0.072000
      8 CAX          3.9390    -0.8330    -0.1300 ca         1 FI4       0.057100
      9 OAS          2.7420    -1.4900    -0.0360 os         1 FI4      -0.328400
     10 CAW          1.6050    -0.7730    -0.1550 ca         1 FI4       0.947300
     11 NAP          1.7040     0.5120    -0.3730 nb         1 FI4      -0.822000
     12 NAO          0.5240    -1.5330    -0.0310 nb         1 FI4      -0.838000
     13 CAZ         -0.6710    -0.9540    -0.1430 ca         1 FI4       0.813200
     14 NAQ         -1.7630    -1.6980     0.0120 nu         1 FI4      -0.847900
     15 CAM         -1.7590    -3.1260     0.2310 c3         1 FI4       0.226800
     16 CBD         -3.1030    -3.5640     0.7870 c3         1 FI4       0.129100
     17 OAB         -4.0940    -3.1100    -0.1210 oh         1 FI4      -0.608800
     18 CAA         -3.1510    -5.0690     0.9790 c3         1 FI4      -0.121100
     19 CBC         -0.7300     0.4380    -0.4050 ca         1 FI4      -0.538500
     20 CBB          0.5000     1.0850    -0.4830 ca         1 FI4       0.519800
     21 NAR          0.2240     2.3810    -0.6820 na         1 FI4      -0.101800
     22 NAN         -1.0920     2.6260    -0.7330 nc         1 FI4      -0.499100
     23 CBA         -1.6890     1.4720    -0.5730 cd         1 FI4       0.439500
     24 CAY         -3.1510     1.3280    -0.5990 ca         1 FI4      -0.097900
     25 CAV         -3.9900     1.9320     0.3370 ca         1 FI4       0.049400
     26 CLAE        -3.3350     2.9070     1.5990 cl         1 FI4      -0.087400
     27 CAJ         -3.7340     0.5230    -1.5770 ca         1 FI4      -0.114000
     28 CAG         -5.1030     0.3180    -1.6230 ca         1 FI4      -0.126000
     29 CAF         -5.9180     0.9330    -0.6850 ca         1 FI4      -0.116000
     30 CAI         -5.3630     1.7400     0.2950 ca         1 FI4      -0.128000
     31 HAL          6.0230     1.0810     1.7480 ha         1 FI4       0.169000
     32 HAH          6.5640    -0.4240    -2.2340 ha         1 FI4       0.157000
     33 HAK          4.3350    -1.5110    -2.1120 ha         1 FI4       0.154000
     34 HNAQ        -2.6620    -1.2780    -0.1710 hn         1 FI4       0.462800
     35 HAM         -1.5390    -3.6610    -0.7000 h1         1 FI4       0.069200
     36 HAMA        -0.9750    -3.3850     0.9410 h1         1 FI4       0.069200
     37 HBD         -3.2390    -3.0790     1.7620 h1         1 FI4       0.038700
     38 HOAB        -4.9280    -3.0520     0.3480 ho         1 FI4       0.408000
     39 HAA         -2.9730    -5.5990     0.0430 hc         1 FI4       0.046700
     40 HAAA        -2.3990    -5.3910     1.6990 hc         1 FI4       0.046700
     41 HAAB        -4.1220    -5.3810     1.3660 hc         1 FI4       0.046700
     42 HAJ         -3.0950     0.0610    -2.3200 ha         1 FI4       0.145000
     43 HAG         -5.5300    -0.3100    -2.3920 ha         1 FI4       0.141000
     44 HAF         -6.9900     0.7870    -0.7100 ha         1 FI4       0.137000
     45 HAI         -5.9930     2.2190     1.0320 ha         1 FI4       0.148000
     46 H16          0.8790     3.1420    -0.7430 hn         1 FI4       0.337700
@<TRIPOS>BOND
     1     1     2 1   
     2     2     3 ar  
     3     2     8 ar  
     4     3     4 ar  
     5     3    31 1   
     6     4     5 1   
     7     4     6 ar  
     8     6     7 ar  
     9     6    32 1   
    10     7     8 ar  
    11     7    33 1   
    12     8     9 1   
    13     9    10 1   
    14    10    11 ar  
    15    10    12 ar  
    16    11    20 ar  
    17    12    13 ar  
    18    13    14 1   
    19    13    19 ar  
    20    14    15 1   
    21    14    34 1   
    22    15    16 1   
    23    15    35 1   
    24    15    36 1   
    25    16    17 1   
    26    16    18 1   
    27    16    37 1   
    28    17    38 1   
    29    18    39 1   
    30    18    40 1   
    31    18    41 1   
    32    19    20 ar  
    33    19    23 1   
    34    20    21 1   
    35    21    22 1   
    36    21    46 1   
    37    22    23 2   
    38    23    24 1   
    39    24    25 ar  
    40    24    27 ar  
    41    25    26 1   
    42    25    30 ar  
    43    27    28 ar  
    44    27    42 1   
    45    28    29 ar  
    46    28    43 1   
    47    29    30 ar  
    48    29    44 1   
    49    30    45 1   
@<TRIPOS>SUBSTRUCTURE
     1 FI4         1 TEMP              0 ****  ****    0 ROOT
