@<TRIPOS>MOLECULE
FI4
   46    49     1     0     0
SMALL
No Charge or Current Charge


@<TRIPOS>ATOM
      1 FAD          3.4120     0.0690     1.8290 f          1 FI4      -0.156000
      2 CAU          4.3510    -0.0640     0.8640 ca         1 FI4       0.209000
      3 CAL          5.6000     0.5530     1.0370 ca         1 FI4      -0.197000
      4 CAT          6.5900     0.4050     0.0550 ca         1 FI4       0.201000
      5 FAC          7.7920     0.9970     0.2220 f          1 FI4      -0.170000
      6 CAH          6.3430    -0.3600    -1.0960 ca         1 FI4      -0.165000
      7 CAK          5.0920    -0.9800    -1.2730 ca         1 FI4      -0.054000
      8 CAX          4.0880    -0.8270    -0.2990 ca         1 FI4       0.057100
      9 OAS          2.8720    -1.4510    -0.4920 os         1 FI4      -0.328400
     10 CAW          1.6790    -0.7620    -0.5230 ca         1 FI4       0.421300
     11 NAP          1.6970     0.5560    -0.8510 nb         1 FI4      -0.296000
     12 NAO          0.5700    -1.4780    -0.2260 nb         1 FI4      -0.312000
     13 CAZ         -0.6050    -0.8300    -0.2600 ca         1 FI4       0.484900
     14 NAQ         -1.7430    -1.5400     0.0700 nu         1 FI4      -0.903100
     15 CAM         -1.8480    -2.9950     0.3080 c3         1 FI4       0.226800
     16 CBD         -3.2840    -3.3970     0.7600 c3         1 FI4       0.152300
     17 OAB         -4.2670    -2.9000    -0.1650 oh         1 FI4      -0.671000
     18 CAA         -3.4540    -4.9230     0.8910 c3         1 FI4      -0.121100
     19 CBC         -0.6420     0.5130    -0.6020 ca         1 FI4      -0.407900
     20 CBB          0.5100     1.1780    -0.8770 ca         1 FI4       0.191500
     21 NAR          0.1650     2.4920    -1.1300 na         1 FI4      -0.152100
     22 NAN         -1.2230     2.6890    -1.0180 nc         1 FI4      -0.499100
     23 CBA         -1.7000     1.4800    -0.6960 cd         1 FI4       0.439500
     24 CAY         -3.1320     1.1970    -0.5520 ca         1 FI4      -0.097900
     25 CAV         -3.8730     1.7220     0.5280 ca         1 FI4       0.141000
     26 ClAE        -3.1020     2.7080     1.7700 cl         1 FI4      -0.179000
     27 CAJ         -3.7810     0.3860    -1.5060 ca         1 FI4      -0.096000
     28 CAG         -5.1530     0.1090    -1.3860 ca         1 FI4      -0.108000
     29 CAF         -5.8860     0.6350    -0.3100 ca         1 FI4      -0.098000
     30 CAI         -5.2440     1.4390     0.6470 ca         1 FI4      -0.110000
     31 HAL          5.8000     1.1390     1.9300 ha         1 FI4       0.151000
     32 HAH          7.1200    -0.4710    -1.8480 ha         1 FI4       0.139000
     33 HAK          4.8970    -1.5740    -2.1630 ha         1 FI4       0.136000
     34 HNAQ        -2.6260    -1.0650    -0.1130 hn         1 FI4       0.518000
     35 HAM         -1.5910    -3.5450    -0.6080 h1         1 FI4       0.069200
     36 HAMA        -1.1380    -3.3030     1.0890 h1         1 FI4       0.069200
     37 HBD         -3.4580    -2.9520     1.7490 h1         1 FI4       0.038700
     38 HOAB        -5.1480    -3.1420     0.1930 ho         1 FI4       0.447000
     39 HAA         -3.2980    -5.4190    -0.0750 hc         1 FI4       0.046700
     40 HAAA        -2.7280    -5.3290     1.6060 hc         1 FI4       0.046700
     41 HAAB        -4.4590    -5.1740     1.2510 hc         1 FI4       0.046700
     42 HAJ         -3.2200    -0.0230    -2.3450 ha         1 FI4       0.127000
     43 HAG         -5.6480    -0.5170    -2.1270 ha         1 FI4       0.123000
     44 HAF         -6.9480     0.4170    -0.2160 ha         1 FI4       0.119000
     45 HAI         -5.8090     1.8410     1.4840 ha         1 FI4       0.130000
     46 H16          0.8090     3.2440    -1.3680 hn         1 FI4       0.388000
@<TRIPOS>BOND
     1     1     2 1   
     2     2     3 ar  
     3     2     8 ar  
     4     3     4 ar  
     5     3    31 1   
     6     4     5 1   
     7     4     6 ar  
     8     6     7 ar  
     9     6    32 1   
    10     7     8 ar  
    11     7    33 1   
    12     8     9 1   
    13     9    10 1   
    14    10    11 ar  
    15    10    12 ar  
    16    11    20 ar  
    17    12    13 ar  
    18    13    14 1   
    19    13    19 ar  
    20    14    15 1   
    21    14    34 1   
    22    15    16 1   
    23    15    35 1   
    24    15    36 1   
    25    16    17 1   
    26    16    18 1   
    27    16    37 1   
    28    17    38 1   
    29    18    39 1   
    30    18    40 1   
    31    18    41 1   
    32    19    20 ar  
    33    19    23 1   
    34    20    21 1   
    35    21    22 1   
    36    21    46 1   
    37    22    23 2   
    38    23    24 1   
    39    24    25 ar  
    40    24    27 ar  
    41    25    26 1   
    42    25    30 ar  
    43    27    28 ar  
    44    27    42 1   
    45    28    29 ar  
    46    28    43 1   
    47    29    30 ar  
    48    29    44 1   
    49    30    45 1   
@<TRIPOS>SUBSTRUCTURE
     1 FI4         1 TEMP              0 ****  ****    0 ROOT
