@<TRIPOS>MOLECULE
FI5
   31    32     1     0     0
SMALL
abcg2


@<TRIPOS>ATOM
      1 C16         36.7080   -45.0900    28.2380 c6         1 FI5      -0.131900
      2 C15         37.7030   -46.2390    28.0490 c6         1 FI5       0.149800
      3 C13         37.1860   -46.3970    25.7100 c6         1 FI5       0.149800
      4 C12         36.1670   -45.2590    25.8090 c6         1 FI5      -0.131900
      5 C11         36.5630   -44.3200    26.9350 c6         1 FI5       0.178300
      6 C04         34.9200   -40.0170    28.2660 ca         1 FI5       0.312500
      7 C06         37.0920   -40.4770    28.7160 ca         1 FI5       0.369900
      8 C07         37.0080   -41.7440    28.1570 ca         1 FI5      -0.249000
      9 C08         35.7880   -42.1480    27.6170 ca         1 FI5       0.184100
     10 C09         34.7180   -41.2510    27.6840 ca         1 FI5      -0.148000
     11 N01         34.0740   -37.8700    28.8910 nt         1 FI5      -0.588000
     12 N05         36.0850   -39.6210    28.7760 nb         1 FI5      -0.704000
     13 N14         37.3750   -47.1290    26.9500 n7         1 FI5      -0.843400
     14 O03         32.6640   -39.3450    27.9090 o          1 FI5      -0.607100
     15 O10         35.5470   -43.3140    27.0240 os         1 FI5      -0.341100
     16 H1          37.0430   -44.4440    29.0540 hc         1 FI5       0.060450
     17 H2          35.7310   -45.4940    28.5240 hc         1 FI5       0.060450
     18 H3          37.7730   -46.8200    28.9700 h1         1 FI5       0.056950
     19 H4          38.7010   -45.8240    27.8670 h1         1 FI5       0.056950
     20 H5          36.8870   -47.0950    24.9270 h1         1 FI5       0.056950
     21 H6          38.1560   -45.9850    25.4090 h1         1 FI5       0.056950
     22 H7          36.1170   -44.7180    24.8610 hc         1 FI5       0.060450
     23 H8          35.1740   -45.6740    26.0080 hc         1 FI5       0.060450
     24 H9          37.5190   -43.8520    26.6700 h1         1 FI5       0.048700
     25 H10         38.0350   -40.1480    29.1370 h4         1 FI5       0.018100
     26 H11         37.8880   -42.3710    28.1590 ha         1 FI5       0.128000
     27 H12         33.7520   -41.5220    27.2810 ha         1 FI5       0.161000
     28 H13         33.3760   -37.1520    28.9870 hn         1 FI5       0.327500
     29 H14         35.0060   -37.6950    29.2280 hn         1 FI5       0.327500
     30 H15         36.5180   -47.6230    27.1740 hn         1 FI5       0.408000
     31 C02         33.7700   -39.0460    28.3360 c          1 FI5       0.510600
@<TRIPOS>BOND
     1     1     2 1   
     2     1     5 1   
     3     1    16 1   
     4     1    17 1   
     5     2    13 1   
     6     2    18 1   
     7     2    19 1   
     8     3     4 1   
     9     3    13 1   
    10     3    20 1   
    11     3    21 1   
    12     4     5 1   
    13     4    22 1   
    14     4    23 1   
    15     5    15 1   
    16     5    24 1   
    17     6    10 ar  
    18     6    12 ar  
    19     6    31 1   
    20     7     8 ar  
    21     7    12 ar  
    22     7    25 1   
    23     8     9 ar  
    24     8    26 1   
    25     9    10 ar  
    26     9    15 1   
    27    10    27 1   
    28    11    28 1   
    29    11    29 1   
    30    11    31 1   
    31    13    30 1   
    32    14    31 2   
@<TRIPOS>SUBSTRUCTURE
     1 FI5         1 TEMP              0 ****  ****    0 ROOT
