@<TRIPOS>MOLECULE
FI5
   31    32     1     0     0
SMALL
No Charge or Current Charge


@<TRIPOS>ATOM
      1 C16         36.6970   -45.0180    28.1860 c6         1 FI5      -0.131900
      2 C15         37.6590   -46.2270    28.1420 c6         1 FI5       0.149800
      3 C13         37.2130   -46.5580    25.7350 c6         1 FI5       0.149800
      4 C12         36.2390   -45.3590    25.7200 c6         1 FI5      -0.131900
      5 C11         36.6220   -44.3230    26.8010 c6         1 FI5       0.178300
      6 C04         34.9260   -39.9770    28.2960 ca         1 FI5       0.312500
      7 C06         37.1810   -40.4560    28.6820 ca         1 FI5       0.369900
      8 C07         37.0860   -41.6860    28.0220 ca         1 FI5      -0.249000
      9 C08         35.8470   -42.0750    27.4830 ca         1 FI5       0.184100
     10 C09         34.7620   -41.2020    27.6200 ca         1 FI5      -0.148000
     11 N01         33.9320   -37.8550    29.1050 nt         1 FI5      -0.588000
     12 N05         36.1340   -39.6140    28.8230 nb         1 FI5      -0.704000
     13 N14         37.2600   -47.1800    27.0800 n7         1 FI5      -0.843400
     14 O03         32.6080   -39.2630    28.0080 o          1 FI5      -0.607100
     15 O10         35.6440   -43.2620    26.8050 os         1 FI5      -0.341100
     16 H1          37.0360   -44.3140    28.9560 hc         1 FI5       0.060450
     17 H2          35.6960   -45.3530    28.4890 hc         1 FI5       0.060450
     18 H3          37.6590   -46.7350    29.1190 h1         1 FI5       0.056950
     19 H4          38.6850   -45.8730    27.9560 h1         1 FI5       0.056950
     20 H5          36.8950   -47.3040    24.9910 h1         1 FI5       0.056950
     21 H6          38.2210   -46.2180    25.4500 h1         1 FI5       0.056950
     22 H7          36.2540   -44.8860    24.7300 hc         1 FI5       0.060450
     23 H8          35.2130   -45.7130    25.8860 hc         1 FI5       0.060450
     24 H9          37.6050   -43.9080    26.5330 h1         1 FI5       0.048700
     25 H10         38.1270   -40.1280    29.1110 h4         1 FI5       0.018100
     26 H11         37.9740   -42.3020    27.9420 ha         1 FI5       0.128000
     27 H12         33.7960   -41.4740    27.2060 ha         1 FI5       0.161000
     28 H13         33.1710   -37.2030    29.2250 hn         1 FI5       0.327500
     29 H14         34.8530   -37.6520    29.4700 hn         1 FI5       0.327500
     30 H15         36.3230   -47.5410    27.3030 hn         1 FI5       0.408000
     31 C02         33.7260   -39.0250    28.4460 c          1 FI5       0.510600
@<TRIPOS>BOND
     1     1     2 1   
     2     1     5 1   
     3     1    16 1   
     4     1    17 1   
     5     2    13 1   
     6     2    18 1   
     7     2    19 1   
     8     3     4 1   
     9     3    13 1   
    10     3    20 1   
    11     3    21 1   
    12     4     5 1   
    13     4    22 1   
    14     4    23 1   
    15     5    15 1   
    16     5    24 1   
    17     6    10 ar  
    18     6    12 ar  
    19     6    31 1   
    20     7     8 ar  
    21     7    12 ar  
    22     7    25 1   
    23     8     9 ar  
    24     8    26 1   
    25     9    10 ar  
    26     9    15 1   
    27    10    27 1   
    28    11    28 1   
    29    11    29 1   
    30    11    31 1   
    31    13    30 1   
    32    14    31 2   
@<TRIPOS>SUBSTRUCTURE
     1 FI5         1 TEMP              0 ****  ****    0 ROOT
