@<TRIPOS>MOLECULE
FI6
   72    76     1     0     0
SMALL
No Charge or Current Charge


@<TRIPOS>ATOM
      1 C1         110.9970   106.9980   133.0090 c3         1 FI6      -0.095100
      2 C2         111.3090   107.7500   134.3120 c3         1 FI6       0.162600
      3 C3         111.1470   110.0850   135.0820 ca         1 FI6       0.152100
      4 C4         111.6510   109.7820   136.3650 ca         1 FI6      -0.171000
      5 C5         111.6960   110.7790   137.3570 ca         1 FI6      -0.056500
      6 C6         111.2150   112.0760   137.0860 ca         1 FI6      -0.025400
      7 C7         110.7720   112.3880   135.7870 ca         1 FI6      -0.056500
      8 O1         111.0410   109.1430   134.0820 os         1 FI6      -0.354100
      9 O3         106.5600   111.9690   136.8530 o          1 FI6      -0.583100
     10 O4         104.8770   106.8050   133.8420 os         1 FI6      -0.402100
     11 C10        112.3230   115.0650   139.0950 ca         1 FI6      -0.249600
     12 C11        111.5650   114.8350   140.2540 ca         1 FI6       0.323000
     13 C12        112.5610   116.6770   141.2930 ca         1 FI6       0.116900
     14 C13        113.3410   116.9730   140.1700 ca         1 FI6      -0.193000
     15 C14        113.2240   116.1500   139.0440 ca         1 FI6       0.000000
     16 C15        110.4960   113.0120   139.2550 cc         1 FI6       0.518900
     17 C16        109.3270   112.0000   139.2840 c3         1 FI6       0.087400
     18 C17        108.8430   111.6120   140.7070 c3         1 FI6      -0.100100
     19 C19        108.3240   114.8860   137.8030 ca         1 FI6      -0.159300
     20 C20        108.2820   114.8450   136.3950 ca         1 FI6       0.345900
     21 C21        109.5480   116.7790   136.2120 ca         1 FI6       0.336900
     22 C22        109.6250   116.9110   137.6080 ca         1 FI6      -0.168000
     23 C23        108.9960   115.9570   138.4220 ca         1 FI6      -0.069000
     24 C25        107.9640   110.0940   137.3830 c3         1 FI6      -0.108100
     25 C26        107.1220   109.2220   136.4570 ca         1 FI6      -0.080300
     26 C27        106.0260   108.5000   136.9630 ca         1 FI6      -0.068000
     27 C28        105.2560   107.6850   136.1130 ca         1 FI6      -0.127500
     28 C29        105.5820   107.5850   134.7400 ca         1 FI6       0.131100
     29 C30        106.6780   108.3080   134.2410 ca         1 FI6      -0.127500
     30 C31        107.4440   109.1230   135.0910 ca         1 FI6      -0.068000
     31 C32        103.7320   106.0030   134.1940 c3         1 FI6       0.508000
     32 C8         110.7260   111.3920   134.7970 ca         1 FI6      -0.171000
     33 C9         112.1820   114.1550   137.9430 c          1 FI6       0.581600
     34 F1         104.0340   105.0610   135.1170 f          1 FI6      -0.106667
     35 F2         103.2550   105.3520   133.1110 f          1 FI6      -0.106667
     36 F3         102.7160   106.7530   134.6810 f          1 FI6      -0.106667
     37 N1         111.2870   113.1000   138.0980 n          1 FI6      -0.251500
     38 N2         111.7020   115.6410   141.3310 nb         1 FI6      -0.131000
     39 N3         110.6340   113.7960   140.3330 nd         1 FI6      -0.699700
     40 N4         108.1620   112.4320   138.4330 n          1 FI6      -0.420800
     41 N5         108.8830   115.7690   135.6080 nb         1 FI6      -0.671000
     42 H1         111.1850   105.9260   133.1360 hc         1 FI6       0.051367
     43 H2         109.9450   107.1320   132.7290 hc         1 FI6       0.051367
     44 H3         111.6280   107.3650   132.1910 hc         1 FI6       0.051367
     45 H4         110.6730   107.3600   135.1180 h1         1 FI6       0.037700
     46 H5         112.3610   107.5940   134.5840 h1         1 FI6       0.037700
     47 H6         112.0080   108.7860   136.6110 ha         1 FI6       0.133000
     48 H7         112.0950   110.5390   138.3400 ha         1 FI6       0.132500
     49 H8         110.4580   113.3990   135.5450 ha         1 FI6       0.132500
     50 H9         112.6230   117.2870   142.1920 h4         1 FI6       0.027100
     51 H10        114.0240   117.8190   140.1760 ha         1 FI6       0.133000
     52 H11        113.8230   116.3510   138.1570 ha         1 FI6       0.144000
     53 H12        109.7350   111.0690   138.8900 h1         1 FI6       0.072700
     54 H13        109.6780   111.2290   141.3070 hc         1 FI6       0.055700
     55 H14        108.4070   112.4690   141.2340 hc         1 FI6       0.055700
     56 H15        108.0800   110.8270   140.6530 hc         1 FI6       0.055700
     57 H16        107.7380   114.0720   139.7020 h1         1 FI6       0.075200
     58 H17        106.5600   113.8380   138.4310 h1         1 FI6       0.075200
     59 H18        107.7600   114.0450   135.8740 h4         1 FI6       0.038100
     60 H19        110.0270   117.5070   135.5580 h4         1 FI6       0.020100
     61 H20        110.1650   117.7450   138.0460 ha         1 FI6       0.124000
     62 H21        109.0350   116.0470   139.5060 ha         1 FI6       0.130000
     63 H22        108.0500   109.6640   138.3870 hc         1 FI6       0.069200
     64 H23        109.0110   110.1060   137.0740 hc         1 FI6       0.069200
     65 H24        105.7680   108.5700   138.0170 ha         1 FI6       0.123500
     66 H25        104.4190   107.1440   136.5400 ha         1 FI6       0.136500
     67 H26        106.9340   108.2360   133.1880 ha         1 FI6       0.136500
     68 H27        108.2870   109.6770   134.6860 ha         1 FI6       0.123500
     69 H28        110.3590   111.6340   133.8030 ha         1 FI6       0.133000
     70 O2         112.8510   114.3050   136.9280 o          1 FI6      -0.507000
     71 C18        107.6370   113.8130   138.6400 c3         1 FI6       0.144300
     72 C24        107.5010   111.5600   137.5210 c          1 FI6       0.600100
@<TRIPOS>BOND
     1     1     2 1   
     2     1    42 1   
     3     1    43 1   
     4     1    44 1   
     5     2     8 1   
     6     2    45 1   
     7     2    46 1   
     8     3     4 ar  
     9     3     8 1   
    10     3    32 ar  
    11     4     5 ar  
    12     4    47 1   
    13     5     6 ar  
    14     5    48 1   
    15     6     7 ar  
    16     6    37 1   
    17     7    32 ar  
    18     7    49 1   
    19     9    72 2   
    20    10    28 1   
    21    10    31 1   
    22    11    12 ar  
    23    11    15 ar  
    24    11    33 1   
    25    12    38 ar  
    26    12    39 1   
    27    13    14 ar  
    28    13    38 ar  
    29    13    50 1   
    30    14    15 ar  
    31    14    51 1   
    32    15    52 1   
    33    16    17 1   
    34    16    37 1   
    35    16    39 2   
    36    17    18 1   
    37    17    40 1   
    38    17    53 1   
    39    18    54 1   
    40    18    55 1   
    41    18    56 1   
    42    19    20 ar  
    43    19    23 ar  
    44    19    71 1   
    45    20    41 ar  
    46    20    59 1   
    47    21    22 ar  
    48    21    41 ar  
    49    21    60 1   
    50    22    23 ar  
    51    22    61 1   
    52    23    62 1   
    53    24    25 1   
    54    24    63 1   
    55    24    64 1   
    56    24    72 1   
    57    25    26 ar  
    58    25    30 ar  
    59    26    27 ar  
    60    26    65 1   
    61    27    28 ar  
    62    27    66 1   
    63    28    29 ar  
    64    29    30 ar  
    65    29    67 1   
    66    30    68 1   
    67    31    34 1   
    68    31    35 1   
    69    31    36 1   
    70    32    69 1   
    71    33    37 1   
    72    33    70 2   
    73    40    71 1   
    74    40    72 1   
    75    57    71 1   
    76    58    71 1   
@<TRIPOS>SUBSTRUCTURE
     1 FI6         1 TEMP              0 ****  ****    0 ROOT
