@<TRIPOS>MOLECULE
FI6
   72    76     1     0     0
SMALL
abcg2


@<TRIPOS>ATOM
      1 C1         110.6870   107.1020   133.0450 c3         1 FI6      -0.095100
      2 C2         111.1230   107.8390   134.2900 c3         1 FI6       0.162600
      3 C3         111.0410   110.0930   135.1170 ca         1 FI6       0.152100
      4 C4         111.6090   109.7400   136.3430 ca         1 FI6      -0.171000
      5 C5         111.7140   110.6930   137.3510 ca         1 FI6      -0.056500
      6 C6         111.2370   111.9780   137.1500 ca         1 FI6      -0.025400
      7 C7         110.6980   112.3400   135.9200 ca         1 FI6      -0.056500
      8 O1         110.8590   109.2370   134.0830 os         1 FI6      -0.354100
      9 O3         106.6240   111.9870   136.8630 o          1 FI6      -0.583100
     10 O4         104.8870   107.0950   133.8420 os         1 FI6      -0.402100
     11 C10        112.4120   114.8990   139.1370 ca         1 FI6      -0.249600
     12 C11        111.4810   114.8290   140.1850 ca         1 FI6       0.323000
     13 C12        112.3610   116.7010   141.1590 ca         1 FI6       0.116900
     14 C13        113.3250   116.8520   140.1550 ca         1 FI6      -0.193000
     15 C14        113.3520   115.9330   139.1290 ca         1 FI6       0.000000
     16 C15        110.4490   112.9960   139.2620 cc         1 FI6       0.518900
     17 C16        109.3140   111.9780   139.2780 c3         1 FI6       0.087400
     18 C17        108.8100   111.6910   140.6880 c3         1 FI6      -0.100100
     19 C19        108.3230   114.8420   137.7300 ca         1 FI6      -0.159300
     20 C20        108.2880   114.7630   136.3380 ca         1 FI6       0.345900
     21 C21        109.4810   116.7010   136.0910 ca         1 FI6       0.336900
     22 C22        109.5550   116.8850   137.4650 ca         1 FI6      -0.168000
     23 C23        108.9600   115.9420   138.2930 ca         1 FI6      -0.069000
     24 C25        108.0430   110.1390   137.4580 c3         1 FI6      -0.108100
     25 C26        107.2080   109.3070   136.5270 ca         1 FI6      -0.080300
     26 C27        106.1570   108.5360   137.0130 ca         1 FI6      -0.068000
     27 C28        105.3580   107.7750   136.1650 ca         1 FI6      -0.127500
     28 C29        105.6350   107.7890   134.8070 ca         1 FI6       0.131100
     29 C30        106.6820   108.5390   134.2920 ca         1 FI6      -0.127500
     30 C31        107.4590   109.2980   135.1550 ca         1 FI6      -0.068000
     31 C32        104.1300   106.0360   134.1650 c3         1 FI6       0.508000
     32 C8         110.6010   111.4050   134.9080 ca         1 FI6      -0.171000
     33 C9         112.3790   113.8980   138.0790 c          1 FI6       0.581600
     34 F1         104.7990   105.1000   134.8630 f          1 FI6      -0.106667
     35 F2         103.7030   105.4820   133.0270 f          1 FI6      -0.106667
     36 F3         103.0400   106.3630   134.8920 f          1 FI6      -0.106667
     37 N1         111.3330   112.9650   138.1980 n          1 FI6      -0.251500
     38 N2         111.4630   115.7260   141.1870 nb         1 FI6      -0.131000
     39 N3         110.5170   113.8520   140.2230 nd         1 FI6      -0.699700
     40 N4         108.2350   112.4280   138.3830 n          1 FI6      -0.420800
     41 N5         108.8510   115.6640   135.5280 nb         1 FI6      -0.671000
     42 H1         110.8860   106.0360   133.1650 hc         1 FI6       0.051367
     43 H2         109.6190   107.2370   132.8700 hc         1 FI6       0.051367
     44 H3         111.2350   107.4590   132.1710 hc         1 FI6       0.051367
     45 H4         110.5640   107.4980   135.1660 h1         1 FI6       0.037700
     46 H5         112.1900   107.6970   134.4820 h1         1 FI6       0.037700
     47 H6         111.9640   108.7370   136.5250 ha         1 FI6       0.133000
     48 H7         112.1510   110.4240   138.3040 ha         1 FI6       0.132500
     49 H8         110.3570   113.3520   135.7610 ha         1 FI6       0.132500
     50 H9         112.3210   117.4120   141.9780 h4         1 FI6       0.027100
     51 H10        114.0250   117.6750   140.1950 ha         1 FI6       0.133000
     52 H11        114.0710   115.9960   138.3240 ha         1 FI6       0.144000
     53 H12        109.7080   111.0570   138.8690 h1         1 FI6       0.072700
     54 H13        109.6280   111.3280   141.3100 hc         1 FI6       0.055700
     55 H14        108.3930   112.5780   141.1600 hc         1 FI6       0.055700
     56 H15        108.0400   110.9210   140.6360 hc         1 FI6       0.055700
     57 H16        107.8260   114.0390   139.6400 h1         1 FI6       0.075200
     58 H17        106.6200   113.7270   138.3960 h1         1 FI6       0.075200
     59 H18        107.7870   113.9290   135.8610 h4         1 FI6       0.038100
     60 H19        109.9410   117.4130   135.4150 h4         1 FI6       0.020100
     61 H20        110.0720   117.7420   137.8750 ha         1 FI6       0.124000
     62 H21        109.0000   116.0540   139.3690 ha         1 FI6       0.130000
     63 H22        108.0230   109.7060   138.4600 hc         1 FI6       0.069200
     64 H23        109.0820   110.1260   137.1320 hc         1 FI6       0.069200
     65 H24        105.9480   108.5250   138.0760 ha         1 FI6       0.123500
     66 H25        104.5450   107.1940   136.5740 ha         1 FI6       0.136500
     67 H26        106.8780   108.5240   133.2290 ha         1 FI6       0.136500
     68 H27        108.2720   109.8840   134.7520 ha         1 FI6       0.123500
     69 H28        110.1690   111.6690   133.9520 ha         1 FI6       0.133000
     70 O2         113.1720   113.8400   137.1530 o          1 FI6      -0.507000
     71 C18        107.6890   113.7780   138.5930 c3         1 FI6       0.144300
     72 C24        107.5720   111.5900   137.5360 c          1 FI6       0.600100
@<TRIPOS>BOND
     1     1     2 1   
     2     1    42 1   
     3     1    43 1   
     4     1    44 1   
     5     2     8 1   
     6     2    45 1   
     7     2    46 1   
     8     3     4 ar  
     9     3     8 1   
    10     3    32 ar  
    11     4     5 ar  
    12     4    47 1   
    13     5     6 ar  
    14     5    48 1   
    15     6     7 ar  
    16     6    37 1   
    17     7    32 ar  
    18     7    49 1   
    19     9    72 2   
    20    10    28 1   
    21    10    31 1   
    22    11    12 ar  
    23    11    15 ar  
    24    11    33 1   
    25    12    38 ar  
    26    12    39 1   
    27    13    14 ar  
    28    13    38 ar  
    29    13    50 1   
    30    14    15 ar  
    31    14    51 1   
    32    15    52 1   
    33    16    17 1   
    34    16    37 1   
    35    16    39 2   
    36    17    18 1   
    37    17    40 1   
    38    17    53 1   
    39    18    54 1   
    40    18    55 1   
    41    18    56 1   
    42    19    20 ar  
    43    19    23 ar  
    44    19    71 1   
    45    20    41 ar  
    46    20    59 1   
    47    21    22 ar  
    48    21    41 ar  
    49    21    60 1   
    50    22    23 ar  
    51    22    61 1   
    52    23    62 1   
    53    24    25 1   
    54    24    63 1   
    55    24    64 1   
    56    24    72 1   
    57    25    26 ar  
    58    25    30 ar  
    59    26    27 ar  
    60    26    65 1   
    61    27    28 ar  
    62    27    66 1   
    63    28    29 ar  
    64    29    30 ar  
    65    29    67 1   
    66    30    68 1   
    67    31    34 1   
    68    31    35 1   
    69    31    36 1   
    70    32    69 1   
    71    33    37 1   
    72    33    70 2   
    73    40    71 1   
    74    40    72 1   
    75    57    71 1   
    76    58    71 1   
@<TRIPOS>SUBSTRUCTURE
     1 FI6         1 TEMP              0 ****  ****    0 ROOT
