@<TRIPOS>MOLECULE
FI7
   49    51     1     0     0
SMALL
No Charge or Current Charge


@<TRIPOS>ATOM
      1 C10        130.9210   121.4820   102.9320 ca         1 FI7      -0.127000
      2 C13        132.6710   122.6490   104.1260 ca         1 FI7       0.245900
      3 C17        138.8390   123.6330    97.7030 c          1 FI7       0.606100
      4 C20        140.9200   125.1220    97.8880 c2         1 FI7       0.024400
      5 C21        141.3510   126.3710    98.2510 ce         1 FI7      -0.250400
      6 C22        140.4800   127.4190    98.9290 c          1 FI7       0.717200
      7 C26        143.5450   125.9350    96.9520 c6         1 FI7      -0.079400
      8 C28        141.8470   124.0910    97.2210 c6         1 FI7      -0.038200
      9 C01        136.4330   123.4920    96.9310 c3         1 FI7      -0.094100
     10 C02        137.3480   123.5690    98.1870 c3         1 FI7      -0.111000
     11 C03        136.9290   124.8220    99.0170 c3         1 FI7      -0.094100
     12 C05        135.8140   122.0090    99.6110 cc         1 FI7       0.499300
     13 C07        134.0730   121.8110   100.7900 cd         1 FI7       0.508000
     14 C08        133.1160   121.9190   101.9450 ca         1 FI7       0.272000
     15 C09        131.8100   121.3760   101.8470 ca         1 FI7      -0.088000
     16 C11        131.3550   122.1300   104.0970 ca         1 FI7       0.094100
     17 C25        142.8170   126.8050    97.9950 c6         1 FI7      -0.012200
     18 C27        143.3450   124.4510    97.2870 c6         1 FI7      -0.069400
     19 N06        135.3670   122.3140   100.8090 nd         1 FI7      -0.693000
     20 N14        133.5320   122.5500   103.0850 nb         1 FI7      -0.586000
     21 N15        133.7510   121.2150    99.6450 nc         1 FI7      -0.400300
     22 N19        139.5760   124.7390    98.1040 ns         1 FI7      -0.436100
     23 O12        130.5050   122.2450   105.1680 oh         1 FI7      -0.528100
     24 O16        134.9130   121.3310    98.8510 os         1 FI7      -0.083700
     25 O18        139.3050   122.7470    96.9970 o          1 FI7      -0.664100
     26 O23        139.3140   127.1580    99.1840 o          1 FI7      -0.715000
     27 O24        140.9790   128.4940    99.2270 o          1 FI7      -0.715000
     28 H1         129.9160   121.0690   102.8700 ha         1 FI7       0.133000
     29 H2         133.0490   123.1590   105.0110 h4         1 FI7       0.019100
     30 H5         144.6160   126.1820    96.9390 hc         1 FI7       0.023700
     31 H6         143.1570   126.1480    95.9460 hc         1 FI7       0.023700
     32 H7         141.5560   123.9820    96.1680 hc         1 FI7       0.049700
     33 H8         141.7200   123.1070    97.6900 hc         1 FI7       0.049700
     34 H9         135.3710   123.5050    97.2060 hc         1 FI7       0.048367
     35 H10        136.6150   124.3470    96.2680 hc         1 FI7       0.048367
     36 H11        136.6220   122.5760    96.3580 hc         1 FI7       0.048367
     37 H12        137.5260   124.9130    99.9340 hc         1 FI7       0.048367
     38 H13        137.0440   125.7420    98.4300 hc         1 FI7       0.048367
     39 H14        135.8750   124.7670    99.3150 hc         1 FI7       0.048367
     40 H15        137.5020   121.4040    98.4820 hc         1 FI7       0.085700
     41 H16        137.8930   122.3350    99.9060 hc         1 FI7       0.085700
     42 H17        131.4870   120.8760   100.9380 ha         1 FI7       0.144000
     43 H18        143.3690   126.7710    98.9450 hc         1 FI7       0.048200
     44 H19        142.8580   127.8480    97.6530 hc         1 FI7       0.048200
     45 H20        143.7360   124.2430    98.2920 hc         1 FI7       0.025200
     46 H21        143.9140   123.8220    96.5890 hc         1 FI7       0.025200
     47 H22        139.0370   125.4260    98.6280 hn         1 FI7       0.399500
     48 H23        130.9640   122.7220   105.8950 ho         1 FI7       0.469000
     49 C04        137.1910   122.2800    99.0650 c3         1 FI7      -0.104700
@<TRIPOS>BOND
     1     1    15 ar  
     2     1    16 ar  
     3     1    28 1   
     4     2    16 ar  
     5     2    20 ar  
     6     2    29 1   
     7     3    10 1   
     8     3    22 1   
     9     3    25 2   
    10     4     5 2   
    11     4     8 1   
    12     4    22 1   
    13     5     6 1   
    14     5    17 1   
    15     6    26 1   
    16     6    27 1   
    17     7    17 1   
    18     7    18 1   
    19     7    30 1   
    20     7    31 1   
    21     8    18 1   
    22     8    32 1   
    23     8    33 1   
    24     9    10 1   
    25     9    34 1   
    26     9    35 1   
    27     9    36 1   
    28    10    11 1   
    29    10    49 1   
    30    11    37 1   
    31    11    38 1   
    32    11    39 1   
    33    12    19 2   
    34    12    24 1   
    35    12    49 1   
    36    13    14 1   
    37    13    19 1   
    38    13    21 2   
    39    14    15 ar  
    40    14    20 ar  
    41    15    42 1   
    42    16    23 1   
    43    17    43 1   
    44    17    44 1   
    45    18    45 1   
    46    18    46 1   
    47    21    24 1   
    48    22    47 1   
    49    23    48 1   
    50    40    49 1   
    51    41    49 1   
@<TRIPOS>SUBSTRUCTURE
     1 FI7         1 TEMP              0 ****  ****    0 ROOT
