@<TRIPOS>MOLECULE
FI7
   49    51     1     0     0
SMALL
abcg2


@<TRIPOS>ATOM
      1 C10        130.7110   121.7730   102.4810 ca         1 FI7      -0.127000
      2 C13        132.5830   121.9820   103.9520 ca         1 FI7       0.245900
      3 C17        139.0950   123.5300    98.4280 c          1 FI7       0.606100
      4 C20        140.9160   125.1030    97.7820 c2         1 FI7       0.024400
      5 C21        141.1330   126.3920    97.4230 ce         1 FI7      -0.250400
      6 C22        140.0810   127.4760    97.5380 c          1 FI7       0.717200
      7 C26        143.4020   125.6980    96.5370 c6         1 FI7      -0.079400
      8 C28        141.9990   124.0570    97.7780 c6         1 FI7      -0.038200
      9 C01        136.7630   124.2140    97.8010 c3         1 FI7      -0.094100
     10 C02        137.6260   123.5880    98.9030 c3         1 FI7      -0.111000
     11 C03        137.5270   124.4210   100.1860 c3         1 FI7      -0.094100
     12 C05        135.7750   122.0050    99.6220 cc         1 FI7       0.499300
     13 C07        133.9590   121.8790   100.6240 cd         1 FI7       0.508000
     14 C08        132.9700   121.8730   101.7060 ca         1 FI7       0.272000
     15 C09        131.6080   121.7690   101.4330 ca         1 FI7      -0.088000
     16 C11        131.2000   121.8820   103.7800 ca         1 FI7       0.094100
     17 C25        142.4760   126.8440    96.9090 c6         1 FI7      -0.012200
     18 C27        143.3900   124.6560    97.6370 c6         1 FI7      -0.069400
     19 N06        135.2970   122.0590   100.8210 nd         1 FI7      -0.693000
     20 N14        133.4360   121.9770   102.9450 nb         1 FI7      -0.586000
     21 N15        133.6360   121.7130    99.3760 nc         1 FI7      -0.400300
     22 N19        139.6410   124.7450    98.2240 ns         1 FI7      -0.436100
     23 O12        130.3290   121.8880   104.7950 oh         1 FI7      -0.528100
     24 O16        134.8260   121.7940    98.7160 os         1 FI7      -0.083700
     25 O18        139.6680   122.4640    98.2580 o          1 FI7      -0.664100
     26 O23        138.9330   127.1660    97.9830 o          1 FI7      -0.715000
     27 O24        140.4120   128.6220    97.2030 o          1 FI7      -0.715000
     28 H1         129.6460   121.6960   102.3020 ha         1 FI7       0.133000
     29 H2         133.0040   122.0680   104.9500 h4         1 FI7       0.019100
     30 H5         144.4120   126.0760    96.3630 hc         1 FI7       0.023700
     31 H6         143.0720   125.2390    95.5990 hc         1 FI7       0.023700
     32 H7         141.8180   123.3440    96.9690 hc         1 FI7       0.049700
     33 H8         141.9420   123.4770    98.7000 hc         1 FI7       0.049700
     34 H9         135.7240   124.3030    98.1210 hc         1 FI7       0.048367
     35 H10        137.0990   125.2210    97.5550 hc         1 FI7       0.048367
     36 H11        136.7860   123.6180    96.8870 hc         1 FI7       0.048367
     37 H12        138.1590   124.0120   100.9770 hc         1 FI7       0.048367
     38 H13        137.8260   125.4550   100.0190 hc         1 FI7       0.048367
     39 H14        136.5020   124.4420   100.5550 hc         1 FI7       0.048367
     40 H15        137.3200   121.5290    98.2780 hc         1 FI7       0.085700
     41 H16        137.8090   121.7000    99.9580 hc         1 FI7       0.085700
     42 H17        131.2510   121.6900   100.4160 ha         1 FI7       0.144000
     43 H18        142.9670   127.4730    97.6610 hc         1 FI7       0.048200
     44 H19        142.3270   127.4950    96.0450 hc         1 FI7       0.048200
     45 H20        143.6890   125.1220    98.5810 hc         1 FI7       0.025200
     46 H21        144.1090   123.8580    97.4400 hc         1 FI7       0.025200
     47 H22        139.0560   125.6090    98.2700 hn         1 FI7       0.399500
     48 H23        130.7810   121.9720   105.6440 ho         1 FI7       0.469000
     49 C04        137.1840   122.1320    99.1760 c3         1 FI7      -0.104700
@<TRIPOS>BOND
     1     1    15 ar  
     2     1    16 ar  
     3     1    28 1   
     4     2    16 ar  
     5     2    20 ar  
     6     2    29 1   
     7     3    10 1   
     8     3    22 1   
     9     3    25 2   
    10     4     5 2   
    11     4     8 1   
    12     4    22 1   
    13     5     6 1   
    14     5    17 1   
    15     6    26 1   
    16     6    27 1   
    17     7    17 1   
    18     7    18 1   
    19     7    30 1   
    20     7    31 1   
    21     8    18 1   
    22     8    32 1   
    23     8    33 1   
    24     9    10 1   
    25     9    34 1   
    26     9    35 1   
    27     9    36 1   
    28    10    11 1   
    29    10    49 1   
    30    11    37 1   
    31    11    38 1   
    32    11    39 1   
    33    12    19 2   
    34    12    24 1   
    35    12    49 1   
    36    13    14 1   
    37    13    19 1   
    38    13    21 2   
    39    14    15 ar  
    40    14    20 ar  
    41    15    42 1   
    42    16    23 1   
    43    17    43 1   
    44    17    44 1   
    45    18    45 1   
    46    18    46 1   
    47    21    24 1   
    48    22    47 1   
    49    23    48 1   
    50    40    49 1   
    51    41    49 1   
@<TRIPOS>SUBSTRUCTURE
     1 FI7         1 TEMP              0 ****  ****    0 ROOT
