@<TRIPOS>MOLECULE
FI8
  146   149     1     0     0
SMALL
bcc


@<TRIPOS>ATOM
      1 C1          -1.2050     2.3920     0.3980 c3         1 FI8       0.194600
      2 C10          4.8440     3.1830     3.8150 c2         1 FI8      -0.136200
      3 C11          5.6110     1.8940     3.7450 c3         1 FI8      -0.020500
      4 C12          5.5950     1.3180     2.3170 c3         1 FI8       0.203300
      5 C13          4.3090     0.6130     1.9460 c2         1 FI8      -0.121400
      6 C14          3.7250     0.9110     0.7780 ce         1 FI8      -0.128000
      7 C15          2.5640     0.2710     0.1350 ce         1 FI8      -0.064200
      8 C16          2.5620     0.1960    -1.2060 c2         1 FI8      -0.173200
      9 C17          1.5400    -0.4670    -2.0780 c3         1 FI8      -0.057200
     10 C18          0.6210     0.5300    -2.7900 c3         1 FI8       0.126100
     11 C19         -0.5230    -0.1490    -3.5510 c3         1 FI8       0.144100
     12 C2           0.5680     2.4940    -1.4350 c          1 FI8       0.669300
     13 C20         -1.4570     0.8520    -4.2120 c3         1 FI8      -0.129100
     14 C22          7.0380     2.1790     4.2520 c3         1 FI8      -0.064400
     15 C23          7.0560     2.7310     5.6710 c3         1 FI8      -0.092100
     16 C24          3.8830    -0.4950     2.8660 c3         1 FI8      -0.048900
     17 C25          1.4370    -0.2500     0.9840 c3         1 FI8      -0.054900
     18 C26         -3.3880     2.1660    -0.4720 c6         1 FI8       0.323900
     19 C27         -4.4450     2.9320    -1.2670 c6         1 FI8       0.103100
     20 C28         -5.7470     2.1320    -1.1730 c6         1 FI8       0.136100
     21 C29         -5.5100     0.7140    -1.6690 c6         1 FI8       0.119100
     22 C3           0.1100     2.9090    -0.0900 ce         1 FI8      -0.171400
     23 C30         -4.3390     0.0620    -0.9240 c6         1 FI8       0.158100
     24 C31         -3.9750    -1.2970    -1.4860 c3         1 FI8      -0.088100
     25 C34         -8.6560    -1.2020    -1.7600 ca         1 FI8      -0.193600
     26 C35         -8.6010    -2.5900    -1.8810 ca         1 FI8       0.234100
     27 C36         -9.6450    -3.3570    -1.3820 ca         1 FI8      -0.133600
     28 C37        -10.7450    -2.7610    -0.7690 ca         1 FI8       0.225100
     29 C38        -10.7680    -1.3710    -0.6650 ca         1 FI8      -0.120600
     30 C39         -9.7380    -0.5710    -1.1520 ca         1 FI8       0.066700
     31 C4           0.9630     3.6580     0.6290 cf         1 FI8      -0.041000
     32 C40         -9.7780     0.9250    -0.9950 c3         1 FI8      -0.046100
     33 C41         -9.3330     1.3740     0.3970 c3         1 FI8      -0.084100
     34 C42          6.9130    -0.2080     1.0110 c6         1 FI8       0.320900
     35 C43          8.4220    -0.2570     0.7730 c6         1 FI8       0.093100
     36 C44          8.6860    -1.0700    -0.4900 c6         1 FI8       0.142100
     37 C45          8.0250    -2.4370    -0.3670 c6         1 FI8       0.124100
     38 C46          6.5180    -2.3290    -0.0580 c6         1 FI8       0.179800
     39 C47          5.9760    -3.6880     0.3620 c3         1 FI8      -0.100100
     40 C48          5.6990    -1.7950    -1.2340 c3         1 FI8      -0.100100
     41 C5           0.8490     4.0210     2.0200 cf         1 FI8      -0.166000
     42 C51          9.8990    -3.3610    -3.9800 c3         1 FI8      -0.081600
     43 C52         10.0450    -5.7860    -3.3010 c3         1 FI8      -0.081600
     44 C6           1.8080     4.7330     2.6220 c2         1 FI8      -0.110200
     45 C7           1.8320     5.0720     4.0690 c3         1 FI8      -0.086200
     46 C8           3.2320     4.8690     4.6700 c3         1 FI8       0.192300
     47 C9           3.7340     3.4540     4.5020 c2         1 FI8      -0.121400
     48 O1           0.0170     1.3400    -1.7830 os         1 FI8      -0.409900
     49 O10         -6.6750    -0.0640    -1.3710 os         1 FI8      -0.423900
     50 O11         -7.3750    -0.1950    -3.5010 o          1 FI8      -0.495000
     51 O12        -11.7070    -3.5620    -0.3200 oh         1 FI8      -0.465100
     52 O13         -7.5210    -3.1140    -2.4660 oh         1 FI8      -0.475100
     53 O14          6.3780    -1.5030     1.0900 os         1 FI8      -0.423600
     54 O15          9.1020    -0.8530     1.8460 oh         1 FI8      -0.564800
     55 O16         10.0520    -1.2680    -0.7390 oh         1 FI8      -0.565800
     56 O17          8.1850    -3.1200    -1.6060 os         1 FI8      -0.432900
     57 O3           4.1480     5.7800     4.1150 oh         1 FI8      -0.595800
     58 O4           6.6830     0.3920     2.2340 os         1 FI8      -0.414600
     59 O5A          0.0080    -1.0690    -4.4830 oh         1 FI8      -0.596800
     60 O6          -2.1920     2.8430    -0.5180 os         1 FI8      -0.390600
     61 O7          -3.2040     0.8890    -1.0260 os         1 FI8      -0.421600
     62 O8          -6.7890     2.6980    -1.9200 oh         1 FI8      -0.566800
     63 O9          -4.1160     3.0720    -2.6190 os         1 FI8      -0.383600
     64 CL1         -9.5830    -5.0750    -1.5150 cl         1 FI8      -0.076400
     65 CL2        -12.1560    -0.6620     0.1020 cl         1 FI8      -0.106400
     66 H1          -1.1940     1.3010     0.4590 h1         1 FI8       0.044200
     67 H2          -1.4290     2.7720     1.4000 h1         1 FI8       0.044200
     68 H3           5.3460     4.0080     3.3180 ha         1 FI8       0.136000
     69 H4           5.1730     1.1560     4.4240 hc         1 FI8       0.064700
     70 H5           5.7740     2.1370     1.6050 h1         1 FI8       0.038700
     71 H6           4.1990     1.6810     0.1730 ha         1 FI8       0.117000
     72 H7           3.3970     0.6480    -1.7340 ha         1 FI8       0.120000
     73 H8           2.0570    -1.0540    -2.8400 hc         1 FI8       0.061700
     74 H9           0.9240    -1.1700    -1.5120 hc         1 FI8       0.061700
     75 H10          1.1960     1.1530    -3.4830 h1         1 FI8       0.063700
     76 H11         -1.0980    -0.7480    -2.8370 h1         1 FI8       0.085700
     77 H12         -0.9100     1.5390    -4.8630 hc         1 FI8       0.052700
     78 H13         -2.1920     0.3240    -4.8200 hc         1 FI8       0.052700
     79 H14         -2.0060     1.4370    -3.4770 hc         1 FI8       0.052700
     80 H15          1.9780     2.2300     4.6420 hc         1 FI8       0.040700
     81 H16          3.4040     1.4770     5.3240 hc         1 FI8       0.040700
     82 H17          2.5900     2.7730     6.1960 hc         1 FI8       0.040700
     83 H18          7.6290     1.2640     4.2270 hc         1 FI8       0.045200
     84 H19          7.5310     2.8840     3.5740 hc         1 FI8       0.045200
     85 H20          6.5160     2.0720     6.3550 hc         1 FI8       0.034033
     86 H21          8.0800     2.8190     6.0370 hc         1 FI8       0.034033
     87 H22          6.5940     3.7160     5.7360 hc         1 FI8       0.034033
     88 H23          4.7140    -0.8290     3.4860 hc         1 FI8       0.045700
     89 H24          3.0820    -0.1840     3.5400 hc         1 FI8       0.045700
     90 H25          3.5340    -1.3660     2.3160 hc         1 FI8       0.045700
     91 H26          1.2470     0.4280     1.8170 hc         1 FI8       0.043367
     92 H27          0.5130    -0.3410     0.4180 hc         1 FI8       0.043367
     93 H28          1.6500    -1.2310     1.4100 hc         1 FI8       0.043367
     94 H29         -3.7460     2.0620     0.5720 h2         1 FI8       0.013700
     95 H30         -4.5990     3.9140    -0.7910 h1         1 FI8       0.046700
     96 H31         -6.0160     2.0760    -0.1080 h1         1 FI8       0.036700
     97 H32         -5.3130     0.7130    -2.7440 h1         1 FI8       0.113700
     98 H34         -4.6280    -0.0510     0.1340 h1         1 FI8       0.036700
     99 H35         -3.6780    -1.2180    -2.5340 hc         1 FI8       0.052367
    100 H36         -3.1450    -1.7260    -0.9260 hc         1 FI8       0.052367
    101 H37         -4.8140    -1.9880    -1.4180 hc         1 FI8       0.052367
    102 H38         -3.7390     5.1110    -2.4660 h1         1 FI8       0.035033
    103 H39         -2.3030     4.1070    -2.7300 h1         1 FI8       0.035033
    104 H40         -3.4650     4.3530    -4.0420 h1         1 FI8       0.035033
    105 H41          1.8820     3.9720     0.1460 ha         1 FI8       0.144000
    106 H43         -9.1430     1.3990    -1.7420 hc         1 FI8       0.067200
    107 H44        -10.7880     1.2850    -1.1940 hc         1 FI8       0.067200
    108 H45         -9.9660     0.9540     1.1780 hc         1 FI8       0.038700
    109 H46         -8.3060     1.0700     0.5960 hc         1 FI8       0.038700
    110 H47         -9.3830     2.4600     0.4750 hc         1 FI8       0.038700
    111 H48          6.4460     0.3640     0.1940 h2         1 FI8       0.029700
    112 H49          8.7660     0.7760     0.6040 h1         1 FI8       0.032700
    113 H50          8.2180    -0.5280    -1.3240 h1         1 FI8       0.035700
    114 H51          8.5050    -3.0000     0.4380 h1         1 FI8       0.111700
    115 H52          6.5210    -4.0780     1.2230 hc         1 FI8       0.047700
    116 H53          4.9210    -3.6100     0.6300 hc         1 FI8       0.047700
    117 H54          6.0590    -4.4100    -0.4500 hc         1 FI8       0.047700
    118 H55          5.6490    -2.5300    -2.0360 hc         1 FI8       0.047700
    119 H56          4.6810    -1.5930    -0.8980 hc         1 FI8       0.047700
    120 H57          6.0860    -0.8710    -1.6660 hc         1 FI8       0.047700
    121 H58          0.0030     3.6670     2.5980 ha         1 FI8       0.124000
    122 H59          8.2430    -4.6560    -3.5730 hc         1 FI8       0.068700
    123 H60         10.8800    -3.1050    -3.5770 hc         1 FI8       0.042867
    124 H61         10.0350    -3.6760    -5.0150 hc         1 FI8       0.042867
    125 H62          9.2870    -2.4600    -3.9850 hc         1 FI8       0.042867
    126 H63          9.5950    -6.5990    -2.7310 hc         1 FI8       0.042867
    127 H64         10.0820    -6.0960    -4.3460 hc         1 FI8       0.042867
    128 H65         11.0720    -5.6580    -2.9570 hc         1 FI8       0.042867
    129 H66          2.6500     5.0800     2.0300 ha         1 FI8       0.136000
    130 H67          1.5480     6.1210     4.2200 hc         1 FI8       0.054200
    131 H68          1.0930     4.4830     4.6150 hc         1 FI8       0.054200
    132 H69          3.1370     5.0390     5.7550 h1         1 FI8       0.035700
    133 H70        -12.4110    -3.0580     0.1110 ho         1 FI8       0.448000
    134 H71         -7.5510    -4.0800    -2.4750 ho         1 FI8       0.450000
    135 H72          8.8790    -0.3640     2.6450 ho         1 FI8       0.417000
    136 H73         10.4100    -0.4700    -1.1370 ho         1 FI8       0.403000
    137 H74          3.8160     6.6700     4.2680 ho         1 FI8       0.407000
    138 H75          0.4280    -0.5740    -5.1940 ho         1 FI8       0.400000
    139 H76         -7.1360     3.4550    -1.4380 ho         1 FI8       0.404000
    140 O2           1.3660     3.0990    -2.1130 o          1 FI8      -0.548000
    141 C21          2.8930     2.4300     5.2040 c3         1 FI8      -0.054900
    142 C49          9.1090    -4.0710    -1.7340 c          1 FI8       0.651100
    143 C32         -3.3640     4.2110    -2.9660 c3         1 FI8       0.127700
    144 C33         -7.5130    -0.4250    -2.3300 c          1 FI8       0.685700
    145 C50          9.2510    -4.4950    -3.1770 c3         1 FI8      -0.116700
    146 O18          9.7450    -4.5230    -0.8170 o          1 FI8      -0.515000
@<TRIPOS>BOND
     1     1    22 1   
     2     1    60 1   
     3     1    66 1   
     4     1    67 1   
     5     2     3 1   
     6     2    47 2   
     7     2    68 1   
     8     3     4 1   
     9     3    14 1   
    10     3    69 1   
    11     4     5 1   
    12     4    58 1   
    13     4    70 1   
    14     5     6 2   
    15     5    16 1   
    16     6     7 1   
    17     6    71 1   
    18     7     8 2   
    19     7    17 1   
    20     8     9 1   
    21     8    72 1   
    22     9    10 1   
    23     9    73 1   
    24     9    74 1   
    25    10    11 1   
    26    10    48 1   
    27    10    75 1   
    28    11    13 1   
    29    11    59 1   
    30    11    76 1   
    31    12    22 1   
    32    12    48 1   
    33    12   140 2   
    34    13    77 1   
    35    13    78 1   
    36    13    79 1   
    37    14    15 1   
    38    14    83 1   
    39    14    84 1   
    40    15    85 1   
    41    15    86 1   
    42    15    87 1   
    43    16    88 1   
    44    16    89 1   
    45    16    90 1   
    46    17    91 1   
    47    17    92 1   
    48    17    93 1   
    49    18    19 1   
    50    18    60 1   
    51    18    61 1   
    52    18    94 1   
    53    19    20 1   
    54    19    63 1   
    55    19    95 1   
    56    20    21 1   
    57    20    62 1   
    58    20    96 1   
    59    21    23 1   
    60    21    49 1   
    61    21    97 1   
    62    22    31 2   
    63    23    24 1   
    64    23    61 1   
    65    23    98 1   
    66    24    99 1   
    67    24   100 1   
    68    24   101 1   
    69    25    26 ar  
    70    25    30 ar  
    71    25   144 1   
    72    26    27 ar  
    73    26    52 1   
    74    27    28 ar  
    75    27    64 1   
    76    28    29 ar  
    77    28    51 1   
    78    29    30 ar  
    79    29    65 1   
    80    30    32 1   
    81    31    41 1   
    82    31   105 1   
    83    32    33 1   
    84    32   106 1   
    85    32   107 1   
    86    33   108 1   
    87    33   109 1   
    88    33   110 1   
    89    34    35 1   
    90    34    53 1   
    91    34    58 1   
    92    34   111 1   
    93    35    36 1   
    94    35    54 1   
    95    35   112 1   
    96    36    37 1   
    97    36    55 1   
    98    36   113 1   
    99    37    38 1   
   100    37    56 1   
   101    37   114 1   
   102    38    39 1   
   103    38    40 1   
   104    38    53 1   
   105    39   115 1   
   106    39   116 1   
   107    39   117 1   
   108    40   118 1   
   109    40   119 1   
   110    40   120 1   
   111    41    44 2   
   112    41   121 1   
   113    42   123 1   
   114    42   124 1   
   115    42   125 1   
   116    42   145 1   
   117    43   126 1   
   118    43   127 1   
   119    43   128 1   
   120    43   145 1   
   121    44    45 1   
   122    44   129 1   
   123    45    46 1   
   124    45   130 1   
   125    45   131 1   
   126    46    47 1   
   127    46    57 1   
   128    46   132 1   
   129    47   141 1   
   130    49   144 1   
   131    50   144 2   
   132    51   133 1   
   133    52   134 1   
   134    54   135 1   
   135    55   136 1   
   136    56   142 1   
   137    57   137 1   
   138    59   138 1   
   139    62   139 1   
   140    63   143 1   
   141    80   141 1   
   142    81   141 1   
   143    82   141 1   
   144   102   143 1   
   145   103   143 1   
   146   104   143 1   
   147   122   145 1   
   148   142   145 1   
   149   142   146 2   
@<TRIPOS>SUBSTRUCTURE
     1 FI8         1 TEMP              0 ****  ****    0 ROOT
