@<TRIPOS>MOLECULE
FI8
  146   149     1     0     0
SMALL
No Charge or Current Charge


@<TRIPOS>ATOM
      1 C1          -1.2020     2.2050     0.2800 c3         1 FI8       0.217800
      2 C10          4.6150     3.3000     3.7390 c2         1 FI8      -0.186200
      3 C11          5.5970     2.1280     3.6590 c3         1 FI8      -0.020500
      4 C12          5.6310     1.4660     2.2330 c3         1 FI8       0.226500
      5 C13          4.3700     0.6840     1.8200 c2         1 FI8      -0.121400
      6 C14          3.7700     0.8880     0.6130 ce         1 FI8      -0.178000
      7 C15          2.6270     0.1600     0.0110 ce         1 FI8      -0.064200
      8 C16          2.5610     0.0310    -1.3390 c2         1 FI8      -0.223200
      9 C17          1.4720    -0.6370    -2.1810 c3         1 FI8      -0.057200
     10 C18          0.5260     0.3360    -2.9560 c3         1 FI8       0.149300
     11 C19         -0.6300    -0.4050    -3.7020 c3         1 FI8       0.167300
     12 C2           0.6060     2.3080    -1.5460 c          1 FI8       0.620300
     13 C20         -1.6230     0.5510    -4.3990 c3         1 FI8      -0.129100
     14 C22          7.0060     2.6280     4.1100 c3         1 FI8      -0.064400
     15 C23          7.0480     3.2550     5.5220 c3         1 FI8      -0.092100
     16 C24          3.9810    -0.4010     2.8220 c3         1 FI8      -0.048900
     17 C25          1.4980    -0.3030     0.9250 c3         1 FI8      -0.054900
     18 C26         -3.5390     2.1580    -0.4240 c6         1 FI8       0.370300
     19 C27         -4.6770     2.9910    -1.1150 c6         1 FI8       0.126300
     20 C28         -6.0010     2.1850    -0.9920 c6         1 FI8       0.159300
     21 C29         -5.8150     0.7470    -1.5960 c6         1 FI8       0.142300
     22 C3           0.1310     2.7710    -0.1990 ce         1 FI8      -0.171400
     23 C30         -4.5880     0.0510    -0.9350 c6         1 FI8       0.181300
     24 C31         -4.2430    -1.3090    -1.5900 c3         1 FI8      -0.088100
     25 C34         -9.1790    -0.8970    -1.9230 ca         1 FI8      -0.193600
     26 C35         -9.4210    -2.0870    -2.6310 ca         1 FI8       0.234100
     27 C36        -10.4890    -2.9280    -2.2710 ca         1 FI8      -0.042000
     28 C37        -11.3190    -2.5770    -1.1920 ca         1 FI8       0.225100
     29 C38        -11.0840    -1.3870    -0.4750 ca         1 FI8      -0.029000
     30 C39        -10.0110    -0.5320    -0.8330 ca         1 FI8       0.066700
     31 C4           0.9360     3.5850     0.5490 cf         1 FI8      -0.091000
     32 C40         -9.7720     0.7720    -0.0570 c3         1 FI8      -0.046100
     33 C41         -8.9670     0.5610     1.2420 c3         1 FI8      -0.084100
     34 C42          7.1170    -0.0360     0.9320 c6         1 FI8       0.367300
     35 C43          8.6750    -0.1790     0.8660 c6         1 FI8       0.116300
     36 C44          9.0730    -0.9870    -0.4020 c6         1 FI8       0.165300
     37 C45          8.3170    -2.3600    -0.4370 c6         1 FI8       0.147300
     38 C46          6.7740    -2.1430    -0.2800 c6         1 FI8       0.203000
     39 C47          6.0470    -3.4930    -0.0300 c3         1 FI8      -0.100100
     40 C48          6.1000    -1.4610    -1.5130 c3         1 FI8      -0.100100
     41 C5           0.7380     4.0060     1.9290 cf         1 FI8      -0.216000
     42 C51         11.2280    -4.1590    -3.7340 c3         1 FI8      -0.081600
     43 C52          9.6530    -6.0860    -3.1000 c3         1 FI8      -0.081600
     44 C6           1.7120     4.6140     2.6370 c2         1 FI8      -0.160200
     45 C7           1.6390     4.9640     4.1080 c3         1 FI8      -0.086200
     46 C8           3.0140     4.9630     4.8180 c3         1 FI8       0.215500
     47 C9           3.7540     3.6190     4.7370 c2         1 FI8      -0.121400
     48 O1          -0.0900     1.2170    -1.9970 os         1 FI8      -0.433100
     49 O10         -7.0010    -0.0700    -1.4290 os         1 FI8      -0.447100
     50 O11         -8.0040     0.5880    -3.3870 o          1 FI8      -0.446000
     51 O12        -12.3600    -3.3920    -0.8340 oh         1 FI8      -0.504100
     52 O13         -8.6050    -2.4440    -3.6680 oh         1 FI8      -0.514100
     53 O14          6.5090    -1.3480     0.8990 os         1 FI8      -0.470000
     54 O15          9.1960    -0.8190     2.0550 oh         1 FI8      -0.687000
     55 O16         10.5010    -1.1500    -0.4300 oh         1 FI8      -0.628000
     56 O17          8.6170    -3.1120    -1.6430 os         1 FI8      -0.456100
     57 O3           3.8270     6.0170     4.2860 oh         1 FI8      -0.658000
     58 O4           6.7740     0.5790     2.1890 os         1 FI8      -0.461000
     59 O5A         -0.1030    -1.3010    -4.6950 oh         1 FI8      -0.659000
     60 O6          -2.2720     2.8310    -0.4440 os         1 FI8      -0.437000
     61 O7          -3.4160     0.8770    -1.0690 os         1 FI8      -0.468000
     62 O8          -7.0700     2.9050    -1.6350 oh         1 FI8      -0.689000
     63 O9          -4.4640     3.3060    -2.5260 os         1 FI8      -0.430000
     64 Cl1        -10.7760    -4.4270    -3.1730 cl         1 FI8      -0.168000
     65 Cl2        -12.1610    -0.9880     0.8780 cl         1 FI8      -0.198000
     66 H1          -1.2130     1.1190     0.1270 h1         1 FI8       0.044200
     67 H2          -1.3360     2.3570     1.3560 h1         1 FI8       0.044200
     68 H3           4.7510     4.0060     2.9200 ha         1 FI8       0.186000
     69 H4           5.3180     1.3460     4.3670 hc         1 FI8       0.064700
     70 H5           5.7900     2.2770     1.5100 h1         1 FI8       0.038700
     71 H6           4.2050     1.6410    -0.0450 ha         1 FI8       0.167000
     72 H7           3.3720     0.4310    -1.9500 ha         1 FI8       0.170000
     73 H8           1.9590    -1.2910    -2.9140 hc         1 FI8       0.061700
     74 H9           0.8630    -1.3090    -1.5650 hc         1 FI8       0.061700
     75 H10          1.1050     0.9020    -3.6970 h1         1 FI8       0.063700
     76 H11         -1.1930    -0.9780    -2.9510 h1         1 FI8       0.085700
     77 H12         -1.1080     1.2030    -5.1150 hc         1 FI8       0.052700
     78 H13         -2.3930    -0.0160    -4.9350 hc         1 FI8       0.052700
     79 H14         -2.1320     1.1850    -3.6630 hc         1 FI8       0.052700
     80 H15          2.4160     2.5840     6.0980 hc         1 FI8       0.040700
     81 H16          3.9760     1.7910     5.9520 hc         1 FI8       0.040700
     82 H17          3.8410     3.2800     6.8820 hc         1 FI8       0.040700
     83 H18          7.7160     1.7930     4.1100 hc         1 FI8       0.045200
     84 H19          7.3820     3.3600     3.3850 hc         1 FI8       0.045200
     85 H20          6.6500     2.5570     6.2690 hc         1 FI8       0.034033
     86 H21          8.0810     3.4970     5.7980 hc         1 FI8       0.034033
     87 H22          6.4650     4.1820     5.5640 hc         1 FI8       0.034033
     88 H23          4.8310    -0.7250     3.4340 hc         1 FI8       0.045700
     89 H24          3.1980    -0.0490     3.5040 hc         1 FI8       0.045700
     90 H25          3.6240    -1.3040     2.3180 hc         1 FI8       0.045700
     91 H26          1.4350     0.3080     1.8320 hc         1 FI8       0.043367
     92 H27          0.5230    -0.2290     0.4360 hc         1 FI8       0.043367
     93 H28          1.6250    -1.3500     1.2200 hc         1 FI8       0.043367
     94 H29         -3.8210     1.9970     0.6270 h2         1 FI8       0.013700
     95 H30         -4.7930     3.9360    -0.5660 h1         1 FI8       0.046700
     96 H31         -6.2340     2.0710     0.0770 h1         1 FI8       0.036700
     97 H32         -5.5890     0.8380    -2.6690 h1         1 FI8       0.113700
     98 H34         -4.7860    -0.1130     0.1340 h1         1 FI8       0.036700
     99 H35         -4.0350    -1.1940    -2.6610 hc         1 FI8       0.052367
    100 H36         -3.3580    -1.7550    -1.1220 hc         1 FI8       0.052367
    101 H37         -5.0690    -2.0210    -1.4820 hc         1 FI8       0.052367
    102 H38         -3.2880     5.0230    -2.2460 h1         1 FI8       0.035033
    103 H39         -2.3970     3.5750    -2.7930 h1         1 FI8       0.035033
    104 H40         -3.4280     4.4600    -3.9250 h1         1 FI8       0.035033
    105 H41          1.8850     3.8940     0.1020 ha         1 FI8       0.194000
    106 H43         -9.2540     1.5120    -0.6760 hc         1 FI8       0.067200
    107 H44        -10.7270     1.2510     0.1910 hc         1 FI8       0.067200
    108 H45         -9.5020    -0.1050     1.9300 hc         1 FI8       0.038700
    109 H46         -7.9880     0.1170     1.0300 hc         1 FI8       0.038700
    110 H47         -8.8060     1.5190     1.7510 hc         1 FI8       0.038700
    111 H48          6.7600     0.5850     0.0980 h2         1 FI8       0.029700
    112 H49          9.0980     0.8320     0.7780 h1         1 FI8       0.032700
    113 H50          8.7670    -0.4070    -1.2840 h1         1 FI8       0.035700
    114 H51          8.6370    -2.9480     0.4360 h1         1 FI8       0.111700
    115 H52          6.4500    -4.0040     0.8520 hc         1 FI8       0.047700
    116 H53          4.9730    -3.3420     0.1370 hc         1 FI8       0.047700
    117 H54          6.1560    -4.1720    -0.8850 hc         1 FI8       0.047700
    118 H55          6.1540    -2.1060    -2.3980 hc         1 FI8       0.047700
    119 H56          5.0400    -1.2680    -1.3180 hc         1 FI8       0.047700
    120 H57          6.5660    -0.5080    -1.7850 hc         1 FI8       0.047700
    121 H58         -0.2010     3.7640     2.4260 ha         1 FI8       0.174000
    122 H59          9.0830    -4.1240    -3.7530 hc         1 FI8       0.068700
    123 H60         12.0590    -4.5690    -3.1470 hc         1 FI8       0.042867
    124 H61         11.3130    -4.5370    -4.7600 hc         1 FI8       0.042867
    125 H62         11.3350    -3.0680    -3.7630 hc         1 FI8       0.042867
    126 H63          8.6660    -6.3330    -2.6900 hc         1 FI8       0.042867
    127 H64          9.7130    -6.4980    -4.1150 hc         1 FI8       0.042867
    128 H65         10.4140    -6.5810    -2.4830 hc         1 FI8       0.042867
    129 H66          2.6610     4.8510     2.1530 ha         1 FI8       0.186000
    130 H67          1.1670     5.9460     4.2350 hc         1 FI8       0.054200
    131 H68          0.9890     4.2480     4.6250 hc         1 FI8       0.054200
    132 H69          2.8200     5.1850     5.8770 h1         1 FI8       0.035700
    133 H70        -12.8100    -2.9740    -0.0690 ho         1 FI8       0.487000
    134 H71         -8.9360    -3.2940    -4.0290 ho         1 FI8       0.489000
    135 H72          8.5240    -0.6290     2.7540 ho         1 FI8       0.516000
    136 H73         10.7530    -1.2580     0.5150 ho         1 FI8       0.442000
    137 H74          3.3290     6.8520     4.4180 ho         1 FI8       0.446000
    138 H75          0.2140    -0.7520    -5.4440 ho         1 FI8       0.439000
    139 H76         -6.6660     3.2980    -2.4440 ho         1 FI8       0.503000
    140 O2           1.5520     2.8080    -2.1430 o          1 FI8      -0.499000
    141 C21          3.4900     2.7700     5.9760 c3         1 FI8      -0.054900
    142 C49          9.6980    -3.9530    -1.7080 c          1 FI8       0.602100
    143 C32         -3.3390     4.1300    -2.8820 c3         1 FI8       0.150900
    144 C33         -8.0250    -0.0430    -2.3390 c          1 FI8       0.636700
    145 C50          9.8660    -4.5540    -3.1170 c3         1 FI8      -0.116700
    146 O18         10.4240    -4.2220    -0.7610 o          1 FI8      -0.466000
@<TRIPOS>BOND
     1     1    22 1   
     2     1    60 1   
     3     1    66 1   
     4     1    67 1   
     5     2     3 1   
     6     2    47 2   
     7     2    68 1   
     8     3     4 1   
     9     3    14 1   
    10     3    69 1   
    11     4     5 1   
    12     4    58 1   
    13     4    70 1   
    14     5     6 2   
    15     5    16 1   
    16     6     7 1   
    17     6    71 1   
    18     7     8 2   
    19     7    17 1   
    20     8     9 1   
    21     8    72 1   
    22     9    10 1   
    23     9    73 1   
    24     9    74 1   
    25    10    11 1   
    26    10    48 1   
    27    10    75 1   
    28    11    13 1   
    29    11    59 1   
    30    11    76 1   
    31    12    22 1   
    32    12    48 1   
    33    12   140 2   
    34    13    77 1   
    35    13    78 1   
    36    13    79 1   
    37    14    15 1   
    38    14    83 1   
    39    14    84 1   
    40    15    85 1   
    41    15    86 1   
    42    15    87 1   
    43    16    88 1   
    44    16    89 1   
    45    16    90 1   
    46    17    91 1   
    47    17    92 1   
    48    17    93 1   
    49    18    19 1   
    50    18    60 1   
    51    18    61 1   
    52    18    94 1   
    53    19    20 1   
    54    19    63 1   
    55    19    95 1   
    56    20    21 1   
    57    20    62 1   
    58    20    96 1   
    59    21    23 1   
    60    21    49 1   
    61    21    97 1   
    62    22    31 2   
    63    23    24 1   
    64    23    61 1   
    65    23    98 1   
    66    24    99 1   
    67    24   100 1   
    68    24   101 1   
    69    25    26 ar  
    70    25    30 ar  
    71    25   144 1   
    72    26    27 ar  
    73    26    52 1   
    74    27    28 ar  
    75    27    64 1   
    76    28    29 ar  
    77    28    51 1   
    78    29    30 ar  
    79    29    65 1   
    80    30    32 1   
    81    31    41 1   
    82    31   105 1   
    83    32    33 1   
    84    32   106 1   
    85    32   107 1   
    86    33   108 1   
    87    33   109 1   
    88    33   110 1   
    89    34    35 1   
    90    34    53 1   
    91    34    58 1   
    92    34   111 1   
    93    35    36 1   
    94    35    54 1   
    95    35   112 1   
    96    36    37 1   
    97    36    55 1   
    98    36   113 1   
    99    37    38 1   
   100    37    56 1   
   101    37   114 1   
   102    38    39 1   
   103    38    40 1   
   104    38    53 1   
   105    39   115 1   
   106    39   116 1   
   107    39   117 1   
   108    40   118 1   
   109    40   119 1   
   110    40   120 1   
   111    41    44 2   
   112    41   121 1   
   113    42   123 1   
   114    42   124 1   
   115    42   125 1   
   116    42   145 1   
   117    43   126 1   
   118    43   127 1   
   119    43   128 1   
   120    43   145 1   
   121    44    45 1   
   122    44   129 1   
   123    45    46 1   
   124    45   130 1   
   125    45   131 1   
   126    46    47 1   
   127    46    57 1   
   128    46   132 1   
   129    47   141 1   
   130    49   144 1   
   131    50   144 2   
   132    51   133 1   
   133    52   134 1   
   134    54   135 1   
   135    55   136 1   
   136    56   142 1   
   137    57   137 1   
   138    59   138 1   
   139    62   139 1   
   140    63   143 1   
   141    80   141 1   
   142    81   141 1   
   143    82   141 1   
   144   102   143 1   
   145   103   143 1   
   146   104   143 1   
   147   122   145 1   
   148   142   145 1   
   149   142   146 2   
@<TRIPOS>SUBSTRUCTURE
     1 FI8         1 TEMP              0 ****  ****    0 ROOT
