@<TRIPOS>MOLECULE
FI9
   31    32     1     0     0
SMALL
bcc


@<TRIPOS>ATOM
      1 C02        -39.6610    35.8800    -3.0370 c6         1 FI9       0.161500
      2 C03        -39.5070    37.2490    -2.3480 c6         1 FI9      -0.112400
      3 C04        -38.7980    38.2590    -3.2320 c6         1 FI9       0.105000
      4 C06        -37.2120    36.3580    -3.4640 c6         1 FI9       0.105000
      5 C07        -38.4560    35.6300    -3.9510 c6         1 FI9      -0.112400
      6 C10        -35.1470    38.2880    -4.1810 cc         1 FI9      -0.275200
      7 C11        -34.4130    37.5750    -3.1940 cc         1 FI9      -0.017000
      8 C12        -33.0880    37.3210    -3.3420 cd         1 FI9      -0.277200
      9 C13        -32.3630    37.7470    -4.5120 c          1 FI9       0.696700
     10 C16        -34.4540    38.7220    -5.2710 cd         1 FI9       0.079600
     11 N01        -40.8820    35.7030    -3.8080 n8         1 FI9      -0.881800
     12 N05        -37.4370    37.8030    -3.5090 n          1 FI9      -0.475800
     13 N15        -33.1470    38.4460    -5.4210 ns         1 FI9      -0.431100
     14 O09        -36.9270    39.8120    -4.3930 o          1 FI9      -0.610100
     15 O14        -31.1770    37.5500    -4.7380 o          1 FI9      -0.620500
     16 H1         -39.6680    35.1160    -2.2540 h1         1 FI9       0.061700
     17 H2         -38.9460    37.1410    -1.4150 hc         1 FI9       0.056200
     18 H3         -40.4880    37.6400    -2.0710 hc         1 FI9       0.056200
     19 H4         -38.7540    39.2290    -2.7370 h1         1 FI9       0.051200
     20 H5         -39.3530    38.4070    -4.1660 h1         1 FI9       0.051200
     21 H6         -36.9590    36.0310    -2.4510 h1         1 FI9       0.051200
     22 H7         -36.3720    36.1020    -4.1060 h1         1 FI9       0.051200
     23 H8         -38.6820    35.9780    -4.9650 hc         1 FI9       0.056200
     24 H9         -38.2450    34.5630    -4.0290 hc         1 FI9       0.056200
     25 H10        -34.9110    37.2460    -2.2900 ha         1 FI9       0.140000
     26 H11        -32.5360    36.7930    -2.5770 ha         1 FI9       0.161000
     27 H13        -34.9110    39.2930    -6.0670 h4         1 FI9       0.167000
     28 H14        -41.6850    35.8360    -3.2050 hn         1 FI9       0.339800
     29 H15        -40.9470    36.4240    -4.5170 hn         1 FI9       0.339800
     30 H12        -32.6830    38.7720    -6.2590 hn         1 FI9       0.330500
     31 C08        -36.5740    38.6900    -4.0450 c          1 FI9       0.696300
@<TRIPOS>BOND
     1     1     2 1   
     2     1     5 1   
     3     1    11 1   
     4     1    16 1   
     5     2     3 1   
     6     2    17 1   
     7     2    18 1   
     8     3    12 1   
     9     3    19 1   
    10     3    20 1   
    11     4     5 1   
    12     4    12 1   
    13     4    21 1   
    14     4    22 1   
    15     5    23 1   
    16     5    24 1   
    17     6     7 1   
    18     6    10 2   
    19     6    31 1   
    20     7     8 2   
    21     7    25 1   
    22     8     9 1   
    23     8    26 1   
    24     9    13 1   
    25     9    15 2   
    26    10    13 1   
    27    10    27 1   
    28    11    28 1   
    29    11    29 1   
    30    12    31 1   
    31    13    30 1   
    32    14    31 2   
@<TRIPOS>SUBSTRUCTURE
     1 FI9         1 TEMP              0 ****  ****    0 ROOT
