@<TRIPOS>MOLECULE
FI9
   31    32     1     0     0
SMALL
No Charge or Current Charge


@<TRIPOS>ATOM
      1 C02        -39.7000    35.8590    -2.9250 c6         1 FI9       0.161500
      2 C03        -39.6040    37.2960    -2.3470 c6         1 FI9      -0.112400
      3 C04        -38.8220    38.2600    -3.2730 c6         1 FI9       0.105000
      4 C06        -37.2510    36.3050    -3.5170 c6         1 FI9       0.105000
      5 C07        -38.5420    35.5500    -3.9080 c6         1 FI9      -0.112400
      6 C10        -35.0800    38.3110    -4.2800 cc         1 FI9      -0.275200
      7 C11        -34.4270    37.4290    -3.3340 cc         1 FI9      -0.067000
      8 C12        -33.0710    37.2030    -3.4420 cd         1 FI9      -0.327200
      9 C13        -32.2380    37.8350    -4.4740 c          1 FI9       0.554200
     10 C16        -34.2920    38.9450    -5.2300 cd         1 FI9       0.029600
     11 N01        -40.9960    35.6380    -3.5930 n8         1 FI9      -0.992200
     12 N05        -37.4330    37.7900    -3.5640 n          1 FI9      -0.408800
     13 N15        -32.9340    38.6790    -5.2990 ns         1 FI9      -0.364100
     14 O09        -36.9670    39.6490    -4.8140 o          1 FI9      -0.610100
     15 O14        -31.0390    37.6440    -4.5920 o          1 FI9      -0.545000
     16 H1         -39.6450    35.1520    -2.0810 h1         1 FI9       0.061700
     17 H2         -39.0870    37.2530    -1.3790 hc         1 FI9       0.056200
     18 H3         -40.6010    37.7050    -2.1320 hc         1 FI9       0.056200
     19 H4         -38.7720    39.2500    -2.7960 h1         1 FI9       0.051200
     20 H5         -39.3670    38.3800    -4.2210 h1         1 FI9       0.051200
     21 H6         -36.9520    36.0030    -2.5030 h1         1 FI9       0.051200
     22 H7         -36.4550    36.0020    -4.2130 h1         1 FI9       0.051200
     23 H8         -38.8170    35.8330    -4.9340 hc         1 FI9       0.056200
     24 H9         -38.3510    34.4680    -3.9270 hc         1 FI9       0.056200
     25 H10        -34.9810    36.9790    -2.5150 ha         1 FI9       0.190000
     26 H11        -32.5360    36.5550    -2.7570 ha         1 FI9       0.211000
     27 H13        -34.6590    39.6510    -5.9730 h4         1 FI9       0.217000
     28 H14        -41.7510    35.8670    -2.9360 hn         1 FI9       0.395000
     29 H15        -41.1060    36.3350    -4.3380 hn         1 FI9       0.395000
     30 H12        -32.3670    39.1300    -6.0070 hn         1 FI9       0.330500
     31 C08        -36.5400    38.6480    -4.2510 c          1 FI9       0.629300
@<TRIPOS>BOND
     1     1     2 1   
     2     1     5 1   
     3     1    11 1   
     4     1    16 1   
     5     2     3 1   
     6     2    17 1   
     7     2    18 1   
     8     3    12 1   
     9     3    19 1   
    10     3    20 1   
    11     4     5 1   
    12     4    12 1   
    13     4    21 1   
    14     4    22 1   
    15     5    23 1   
    16     5    24 1   
    17     6     7 1   
    18     6    10 2   
    19     6    31 1   
    20     7     8 2   
    21     7    25 1   
    22     8     9 1   
    23     8    26 1   
    24     9    13 1   
    25     9    15 2   
    26    10    13 1   
    27    10    27 1   
    28    11    28 1   
    29    11    29 1   
    30    12    31 1   
    31    13    30 1   
    32    14    31 2   
@<TRIPOS>SUBSTRUCTURE
     1 FI9         1 TEMP              0 ****  ****    0 ROOT
