@<TRIPOS>MOLECULE
FIC
   18    19     1     0     0
SMALL
No Charge or Current Charge


@<TRIPOS>ATOM
      1 O12         -3.8890    -0.8080    -0.0780 o          1 FIC      -0.709000
      2 C10         -3.1910     0.1980    -0.0690 c          1 FIC       0.727200
      3 O11         -3.6600     1.3290    -0.0720 o          1 FIC      -0.709000
      4 C2          -1.7060     0.0230    -0.0550 cc         1 FIC      -0.084300
      5 N1          -0.9310    -1.1600    -0.0490 na         1 FIC      -0.193700
      6 C3          -0.7590     1.0470    -0.0440 cd         1 FIC      -0.269200
      7 C9           0.5740     0.5080    -0.0320 ca         1 FIC      -0.076800
      8 C4           1.8320     1.1220    -0.0180 ca         1 FIC      -0.115000
      9 C5           2.9620     0.2780    -0.0080 ca         1 FIC       0.109000
     10 F14          4.2000     0.8190     0.0050 f          1 FIC      -0.212000
     11 C6           2.8150    -1.1300    -0.0120 ca         1 FIC      -0.169000
     12 C7           1.5280    -1.7130    -0.0260 ca         1 FIC      -0.101000
     13 C8           0.4220    -0.8510    -0.0360 ca         1 FIC      -0.089200
     14 H3          -1.0050     2.1070    -0.0440 ha         1 FIC       0.208000
     15 H4           1.9350     2.2040    -0.0150 ha         1 FIC       0.117000
     16 H6           3.6970    -1.7650    -0.0050 ha         1 FIC       0.105000
     17 H7           1.4000    -2.7930    -0.0290 ha         1 FIC       0.101000
     18 HN1         -1.3160    -2.0990    -0.0550 hn         1 FIC       0.362000
@<TRIPOS>BOND
     1     1     2 1   
     2     2     3 1   
     3     2     4 1   
     4     4     5 1   
     5     4     6 2   
     6     5    13 1   
     7     5    18 1   
     8     6     7 1   
     9     6    14 1   
    10     7     8 ar  
    11     7    13 ar  
    12     8     9 ar  
    13     8    15 1   
    14     9    10 1   
    15     9    11 ar  
    16    11    12 ar  
    17    11    16 1   
    18    12    13 ar  
    19    12    17 1   
@<TRIPOS>SUBSTRUCTURE
     1 FIC         1 TEMP              0 ****  ****    0 ROOT
