@<TRIPOS>MOLECULE
FIC
   18    19     1     0     0
SMALL
abcg2


@<TRIPOS>ATOM
      1 O12         -3.6820    -1.0220    -0.0860 o          1 FIC      -0.709000
      2 C10         -3.1400     0.1000    -0.0690 c          1 FIC       0.727200
      3 O11         -3.6870     1.2160    -0.0620 o          1 FIC      -0.709000
      4 C2          -1.6350     0.0980    -0.0550 cc         1 FIC      -0.084300
      5 N1          -0.9400    -1.0780    -0.0510 na         1 FIC      -0.193700
      6 C3          -0.7480     1.1440    -0.0440 cd         1 FIC      -0.269200
      7 C9           0.5600     0.5810    -0.0320 ca         1 FIC      -0.076800
      8 C4           1.8540     1.1230    -0.0190 ca         1 FIC      -0.115000
      9 C5           2.9070     0.2430    -0.0100 ca         1 FIC       0.109000
     10 F14          4.1660     0.7320     0.0020 f          1 FIC      -0.212000
     11 C6           2.7530    -1.1460    -0.0120 ca         1 FIC      -0.169000
     12 C7           1.4860    -1.6960    -0.0250 ca         1 FIC      -0.101000
     13 C8           0.3970    -0.8260    -0.0360 ca         1 FIC      -0.089200
     14 H3          -1.0020     2.1920    -0.0440 ha         1 FIC       0.208000
     15 H4           2.0220     2.1930    -0.0160 ha         1 FIC       0.117000
     16 H6           3.6270    -1.7840    -0.0030 ha         1 FIC       0.105000
     17 H7           1.3520    -2.7700    -0.0270 ha         1 FIC       0.101000
     18 HN1         -1.3820    -1.9830    -0.0550 hn         1 FIC       0.362000
@<TRIPOS>BOND
     1     1     2 1   
     2     2     3 1   
     3     2     4 1   
     4     4     5 1   
     5     4     6 2   
     6     5    13 1   
     7     5    18 1   
     8     6     7 1   
     9     6    14 1   
    10     7     8 ar  
    11     7    13 ar  
    12     8     9 ar  
    13     8    15 1   
    14     9    10 1   
    15     9    11 ar  
    16    11    12 ar  
    17    11    16 1   
    18    12    13 ar  
    19    12    17 1   
@<TRIPOS>SUBSTRUCTURE
     1 FIC         1 TEMP              0 ****  ****    0 ROOT
