@<TRIPOS>MOLECULE
FID
   30    32     1     0     0
SMALL
No Charge or Current Charge


@<TRIPOS>ATOM
      1 C2I          2.8830     0.4200    -1.2510 c          1 FID       0.619000
      2 N4           2.7070    -0.8690    -0.9490 ns         1 FID      -0.482500
      3 C5           1.5870    -1.2170    -0.2840 c          1 FID       0.568000
      4 C7I          0.8460     0.1610    -0.0860 c5         1 FID       0.094700
      5 C12         -0.5370     0.1240    -0.7470 ca         1 FID      -0.159300
      6 C13         -0.6550     0.1490    -2.1560 ca         1 FID      -0.096000
      7 C14         -1.9170     0.1160    -2.7700 ca         1 FID       0.136000
      8 F17         -2.0090     0.1450    -4.1180 f          1 FID      -0.175000
      9 C15         -3.0830     0.0540    -1.9950 ca         1 FID      -0.101000
     10 C16         -2.9820     0.0190    -0.5940 ca         1 FID      -0.115000
     11 C11         -1.7220     0.0420     0.0280 ca         1 FID       0.157100
     12 O10         -1.6860     0.0080     1.4060 os         1 FID      -0.311100
     13 C9          -0.4310    -0.2180     2.0930 c6         1 FID       0.090300
     14 C19         -0.5630    -0.0130     3.6360 c          1 FID       0.608100
     15 N21          0.5760     0.1550     4.3530 nt         1 FID      -0.607000
     16 O20         -1.6380     0.0010     4.2180 o          1 FID      -0.568100
     17 C8I          0.7250     0.5560     1.4070 c6         1 FID      -0.113400
     18 N1I          1.7910     1.0730    -0.7710 ns         1 FID      -0.517900
     19 O6I          1.2810    -2.3530     0.0460 o          1 FID      -0.500000
     20 O3I          3.8240     0.9090    -1.8440 o          1 FID      -0.532000
     21 H4           3.3910    -1.5600    -1.2170 hn         1 FID       0.359500
     22 H13          0.2310     0.1980    -2.7850 ha         1 FID       0.137000
     23 H15         -4.0570     0.0320    -2.4770 ha         1 FID       0.138000
     24 H16         -3.8820    -0.0320     0.0140 ha         1 FID       0.140000
     25 H9          -0.2030    -1.2880     1.9950 h1         1 FID       0.076700
     26 H211         0.5110     0.2890     5.3520 hn         1 FID       0.321000
     27 H212         1.4770     0.1380     3.8990 hn         1 FID       0.321000
     28 H8I1         0.5310     1.6350     1.4920 hc         1 FID       0.077200
     29 H8I2         1.6850     0.3700     1.9070 hc         1 FID       0.077200
     30 H1I          1.7040     2.0750    -0.8980 hn         1 FID       0.357500
@<TRIPOS>BOND
     1     1     2 1   
     2     1    18 1   
     3     1    20 2   
     4     2     3 1   
     5     2    21 1   
     6     3     4 1   
     7     3    19 2   
     8     4     5 1   
     9     4    17 1   
    10     4    18 1   
    11     5     6 ar  
    12     5    11 ar  
    13     6     7 ar  
    14     6    22 1   
    15     7     8 1   
    16     7     9 ar  
    17     9    10 ar  
    18     9    23 1   
    19    10    11 ar  
    20    10    24 1   
    21    11    12 1   
    22    12    13 1   
    23    13    14 1   
    24    13    17 1   
    25    13    25 1   
    26    14    15 1   
    27    14    16 2   
    28    15    26 1   
    29    15    27 1   
    30    17    28 1   
    31    17    29 1   
    32    18    30 1   
@<TRIPOS>SUBSTRUCTURE
     1 FID         1 TEMP              0 ****  ****    0 ROOT
