@<TRIPOS>MOLECULE
FID
   30    32     1     0     0
SMALL
abcg2


@<TRIPOS>ATOM
      1 C2I          2.8660     0.5850    -1.3010 c          1 FID       0.619000
      2 N4           2.7760    -0.7670    -0.9690 ns         1 FID      -0.482500
      3 C5           1.6370    -1.0710    -0.3000 c          1 FID       0.568000
      4 C7I          0.8710     0.2500    -0.1340 c5         1 FID       0.094700
      5 C12         -0.5070     0.1300    -0.7410 ca         1 FID      -0.159300
      6 C13         -0.6690     0.1470    -2.1250 ca         1 FID      -0.096000
      7 C14         -1.9280     0.0290    -2.6650 ca         1 FID       0.136000
      8 F17         -2.0720     0.0460    -4.0010 f          1 FID      -0.175000
      9 C15         -3.0520    -0.1010    -1.8680 ca         1 FID      -0.101000
     10 C16         -2.8950    -0.1200    -0.4960 ca         1 FID      -0.115000
     11 C11         -1.6280    -0.0070     0.0750 ca         1 FID       0.157100
     12 O10         -1.5770    -0.0160     1.4240 os         1 FID      -0.311100
     13 C9          -0.3210    -0.1850     2.0410 c6         1 FID       0.090300
     14 C19         -0.4740     0.3090     3.4770 c          1 FID       0.608100
     15 N21          0.2710    -0.3570     4.3640 nt         1 FID      -0.607000
     16 O20         -1.1810     1.2640     3.7460 o          1 FID      -0.568100
     17 C8I          0.7580     0.6310     1.3450 c6         1 FID      -0.113400
     18 N1I          1.7300     1.1550    -0.8490 ns         1 FID      -0.517900
     19 O6I          1.2860    -2.1550     0.0960 o          1 FID      -0.500000
     20 O3I          3.7910     1.1030    -1.8810 o          1 FID      -0.532000
     21 H4           3.4870    -1.4410    -1.2220 hn         1 FID       0.359500
     22 H13          0.1890     0.2620    -2.7760 ha         1 FID       0.137000
     23 H15         -4.0360    -0.1900    -2.3100 ha         1 FID       0.138000
     24 H16         -3.7590    -0.2220     0.1480 ha         1 FID       0.140000
     25 H9          -0.0540    -1.2470     2.0310 h1         1 FID       0.076700
     26 H211         0.2960    -0.0690     5.3290 hn         1 FID       0.321000
     27 H212         0.7920    -1.1800     4.1150 hn         1 FID       0.321000
     28 H8I1         0.5070     1.6940     1.4070 hc         1 FID       0.077200
     29 H8I2         1.7160     0.4940     1.8480 hc         1 FID       0.077200
     30 H1I          1.5650     2.1480    -0.9040 hn         1 FID       0.357500
@<TRIPOS>BOND
     1     1     2 1   
     2     1    18 1   
     3     1    20 2   
     4     2     3 1   
     5     2    21 1   
     6     3     4 1   
     7     3    19 2   
     8     4     5 1   
     9     4    17 1   
    10     4    18 1   
    11     5     6 ar  
    12     5    11 ar  
    13     6     7 ar  
    14     6    22 1   
    15     7     8 1   
    16     7     9 ar  
    17     9    10 ar  
    18     9    23 1   
    19    10    11 ar  
    20    10    24 1   
    21    11    12 1   
    22    12    13 1   
    23    13    14 1   
    24    13    17 1   
    25    13    25 1   
    26    14    15 1   
    27    14    16 2   
    28    15    26 1   
    29    15    27 1   
    30    17    28 1   
    31    17    29 1   
    32    18    30 1   
@<TRIPOS>SUBSTRUCTURE
     1 FID         1 TEMP              0 ****  ****    0 ROOT
