@<TRIPOS>MOLECULE
FIE
   56    60     1     0     0
SMALL
No Charge or Current Charge


@<TRIPOS>ATOM
      1 C1         -13.8520    18.5670    -2.2120 ca         1 FIE      -0.114500
      2 C2         -14.3220    17.8270    -3.3110 ca         1 FIE      -0.088500
      3 C3         -13.7730    16.5620    -3.6050 ca         1 FIE      -0.086300
      4 C4         -12.7450    16.0490    -2.7870 ca         1 FIE      -0.088500
      5 C5         -12.2760    16.7900    -1.6890 ca         1 FIE      -0.114500
      6 C6         -12.8290    18.0490    -1.4000 ca         1 FIE      -0.102000
      7 C7         -14.2860    15.7460    -4.7970 c6         1 FIE       0.197600
      8 O1         -14.1930    16.5490    -5.9890 os         1 FIE      -0.444000
      9 C8         -14.5510    15.8190    -7.1770 c6         1 FIE       0.138600
     10 C9         -16.0220    15.3380    -7.0950 c6         1 FIE       0.067000
     11 N1         -16.3630    14.6400    -5.8120 n          1 FIE      -0.404800
     12 C10        -15.7480    15.2590    -4.5950 c6         1 FIE       0.062000
     13 C11        -17.5860    13.9430    -5.6940 c          1 FIE       0.627700
     14 O2         -18.1730    13.8780    -4.6210 o          1 FIE      -0.582100
     15 C12        -18.1180    13.2100    -6.8970 ca         1 FIE      -0.145600
     16 C13        -17.3240    12.3180    -7.6570 ca         1 FIE       0.156000
     17 C14        -17.8720    11.6560    -8.7680 ca         1 FIE      -0.142000
     18 C15        -19.2100    11.8640    -9.1320 ca         1 FIE       0.244400
     19 C16        -20.0140    12.7150    -8.3600 ca         1 FIE      -0.108000
     20 C17        -19.4750    13.3800    -7.2450 ca         1 FIE      -0.064000
     21 Cl1        -15.6610    11.9290    -7.2120 cl         1 FIE      -0.192000
     22 N2         -19.7490    11.1960   -10.2360 ne         1 FIE      -0.697900
     23 S1         -19.7360    11.8650   -11.6810 s6         1 FIE       1.337500
     24 F1         -21.2680    11.8380   -12.2640 f          1 FIE      -0.296900
     25 O3         -19.1250    13.1780   -11.9110 o          1 FIE      -0.544000
     26 N3         -19.1460    10.6730   -12.7600 n3         1 FIE      -0.783500
     27 C18        -20.0450     9.6410   -13.3950 c5         1 FIE       0.175500
     28 C19        -19.0900     8.6130   -13.9590 ca         1 FIE       0.333300
     29 C20        -17.8270     8.8400   -13.4470 ca         1 FIE      -0.150300
     30 C21        -17.8300    10.0130   -12.4990 c5         1 FIE       0.295100
     31 N4         -19.3790     7.6180   -14.8310 nb         1 FIE      -0.643000
     32 C22        -18.3500     6.8150   -15.2030 ca         1 FIE       0.343900
     33 C23        -17.0320     6.9800   -14.7250 ca         1 FIE      -0.157000
     34 C24        -16.7520     8.0210   -13.8190 ca         1 FIE      -0.048000
     35 H1         -14.2800    19.5430    -1.9910 ha         1 FIE       0.113500
     36 H2         -15.1120    18.2380    -3.9360 ha         1 FIE       0.117000
     37 H3         -12.3110    15.0740    -3.0000 ha         1 FIE       0.117000
     38 H4         -11.4840    16.3880    -1.0610 ha         1 FIE       0.113500
     39 H5         -12.4650    18.6220    -0.5500 ha         1 FIE       0.112000
     40 H6         -13.6410    14.8640    -4.9280 h1         1 FIE       0.051700
     41 H7         -13.8800    14.9550    -7.2880 h1         1 FIE       0.057700
     42 H8         -14.4180    16.4680    -8.0540 h1         1 FIE       0.057700
     43 H9         -16.6820    16.2110    -7.1990 h1         1 FIE       0.059200
     44 H10        -16.2190    14.6880    -7.9570 h1         1 FIE       0.059200
     45 H11        -16.3710    16.1090    -4.2830 h1         1 FIE       0.072200
     46 H12        -15.7600    14.5320    -3.7710 h1         1 FIE       0.072200
     47 H13        -17.2580    10.9680    -9.3390 ha         1 FIE       0.142000
     48 H14        -21.0590    12.8600    -8.6230 ha         1 FIE       0.130000
     49 H15        -20.1100    14.0400    -6.6570 ha         1 FIE       0.128000
     50 H18        -20.6770    10.0690   -14.1840 h1         1 FIE       0.086700
     51 H19        -20.7000     9.1600   -12.6560 h1         1 FIE       0.086700
     52 H20        -17.7520     9.6510   -11.4640 h1         1 FIE       0.079200
     53 H21        -16.9860    10.6910   -12.6870 h1         1 FIE       0.079200
     54 H22        -18.5870     6.0160   -15.9040 h4         1 FIE       0.027100
     55 H23        -16.2470     6.3070   -15.0560 ha         1 FIE       0.130000
     56 H24        -15.7490     8.1800   -13.4260 ha         1 FIE       0.129000
@<TRIPOS>BOND
     1     1     2 ar  
     2     1     6 ar  
     3     1    35 1   
     4     2     3 ar  
     5     2    36 1   
     6     3     4 ar  
     7     3     7 1   
     8     4     5 ar  
     9     4    37 1   
    10     5     6 ar  
    11     5    38 1   
    12     6    39 1   
    13     7     8 1   
    14     7    12 1   
    15     7    40 1   
    16     8     9 1   
    17     9    10 1   
    18     9    41 1   
    19     9    42 1   
    20    10    11 1   
    21    10    43 1   
    22    10    44 1   
    23    11    12 1   
    24    11    13 1   
    25    12    45 1   
    26    12    46 1   
    27    13    14 2   
    28    13    15 1   
    29    15    16 ar  
    30    15    20 ar  
    31    16    17 ar  
    32    16    21 1   
    33    17    18 ar  
    34    17    47 1   
    35    18    19 ar  
    36    18    22 1   
    37    19    20 ar  
    38    19    48 1   
    39    20    49 1   
    40    22    23 2   
    41    23    24 1   
    42    23    25 2   
    43    23    26 1   
    44    26    27 1   
    45    26    30 1   
    46    27    28 1   
    47    27    50 1   
    48    27    51 1   
    49    28    29 ar  
    50    28    31 ar  
    51    29    30 1   
    52    29    34 ar  
    53    30    52 1   
    54    30    53 1   
    55    31    32 ar  
    56    32    33 ar  
    57    32    54 1   
    58    33    34 ar  
    59    33    55 1   
    60    34    56 1   
@<TRIPOS>SUBSTRUCTURE
     1 FIE         1 TEMP              0 ****  ****    0 ROOT
