@<TRIPOS>MOLECULE
FIE
   56    60     1     0     0
SMALL
abcg2


@<TRIPOS>ATOM
      1 C1         -14.9150    18.8830    -1.7680 ca         1 FIE      -0.114500
      2 C2         -15.1850    18.1870    -2.9380 ca         1 FIE      -0.088500
      3 C3         -14.3270    17.1790    -3.3730 ca         1 FIE      -0.086300
      4 C4         -13.1980    16.8810    -2.6180 ca         1 FIE      -0.088500
      5 C5         -12.9270    17.5750    -1.4450 ca         1 FIE      -0.114500
      6 C6         -13.7850    18.5780    -1.0180 ca         1 FIE      -0.102000
      7 C7         -14.6360    16.3970    -4.6190 c6         1 FIE       0.197600
      8 O1         -14.9500    17.3020    -5.6570 os         1 FIE      -0.444000
      9 C8         -15.2560    16.6400    -6.8640 c6         1 FIE       0.138600
     10 C9         -16.4300    15.6900    -6.6990 c6         1 FIE       0.067000
     11 N1         -16.1570    14.7700    -5.6110 n          1 FIE      -0.404800
     12 C10        -15.8010    15.4380    -4.3740 c6         1 FIE       0.062000
     13 C11        -16.2310    13.4300    -5.6790 c          1 FIE       0.627700
     14 O2         -16.0410    12.6910    -4.7250 o          1 FIE      -0.582100
     15 C12        -16.5920    12.8220    -7.0050 ca         1 FIE      -0.145600
     16 C13        -15.6430    12.5770    -7.9870 ca         1 FIE       0.156000
     17 C14        -15.9490    11.8880    -9.1490 ca         1 FIE      -0.142000
     18 C15        -17.2470    11.4190    -9.3430 ca         1 FIE       0.244400
     19 C16        -18.2120    11.6570    -8.3680 ca         1 FIE      -0.108000
     20 C17        -17.8810    12.3430    -7.2130 ca         1 FIE      -0.064000
     21 CL1        -14.0180    13.1330    -7.7560 cl         1 FIE      -0.192000
     22 N2         -17.5810    10.6270   -10.4490 ne         1 FIE      -0.697900
     23 S1         -17.5760    11.0980   -11.8720 s6         1 FIE       1.337500
     24 F1         -18.8050    12.1560   -12.0380 f          1 FIE      -0.296900
     25 O3         -16.4930    11.7810   -12.5390 o          1 FIE      -0.544000
     26 N3         -18.0680     9.8450   -12.7300 n3         1 FIE      -0.783500
     27 C18        -17.9990     9.8910   -14.1990 c5         1 FIE       0.175500
     28 C19        -18.8730     8.7290   -14.5600 ca         1 FIE       0.333300
     29 C20        -19.4650     8.1720   -13.4390 ca         1 FIE      -0.150300
     30 C21        -19.0620     8.8940   -12.1970 c5         1 FIE       0.295100
     31 N4         -19.0510     8.3040   -15.7960 nb         1 FIE      -0.643000
     32 C22        -19.8630     7.2610   -15.9490 ca         1 FIE       0.343900
     33 C23        -20.5040     6.6240   -14.8930 ca         1 FIE      -0.157000
     34 C24        -20.3050     7.0860   -13.5990 ca         1 FIE      -0.048000
     35 H1         -15.5870    19.6650    -1.4410 ha         1 FIE       0.113500
     36 H2         -16.0700    18.4370    -3.5110 ha         1 FIE       0.117000
     37 H3         -12.5210    16.1030    -2.9510 ha         1 FIE       0.117000
     38 H4         -12.0430    17.3330    -0.8700 ha         1 FIE       0.113500
     39 H5         -13.5740    19.1230    -0.1070 ha         1 FIE       0.112000
     40 H6         -13.7580    15.7960    -4.9000 h1         1 FIE       0.051700
     41 H7         -14.3860    16.0800    -7.2300 h1         1 FIE       0.057700
     42 H8         -15.5020    17.4060    -7.6000 h1         1 FIE       0.057700
     43 H9         -17.3400    16.2540    -6.4690 h1         1 FIE       0.059200
     44 H10        -16.6030    15.1530    -7.6290 h1         1 FIE       0.059200
     45 H11        -16.6680    15.9940    -4.0010 h1         1 FIE       0.072200
     46 H12        -15.5270    14.7010    -3.6220 h1         1 FIE       0.072200
     47 H13        -15.1780    11.6880    -9.8810 ha         1 FIE       0.142000
     48 H14        -19.2180    11.2860    -8.5120 ha         1 FIE       0.130000
     49 H15        -18.6400    12.5120    -6.4590 ha         1 FIE       0.128000
     50 H18        -16.9740     9.7650   -14.5490 h1         1 FIE       0.086700
     51 H19        -18.3950    10.8240   -14.6100 h1         1 FIE       0.086700
     52 H20        -19.9070     9.4050   -11.7300 h1         1 FIE       0.079200
     53 H21        -18.6020     8.2420   -11.4540 h1         1 FIE       0.079200
     54 H22        -20.0120     6.9110   -16.9640 h4         1 FIE       0.027100
     55 H23        -21.1490     5.7780   -15.0880 ha         1 FIE       0.130000
     56 H24        -20.7900     6.6120   -12.7550 ha         1 FIE       0.129000
@<TRIPOS>BOND
     1     1     2 ar  
     2     1     6 ar  
     3     1    35 1   
     4     2     3 ar  
     5     2    36 1   
     6     3     4 ar  
     7     3     7 1   
     8     4     5 ar  
     9     4    37 1   
    10     5     6 ar  
    11     5    38 1   
    12     6    39 1   
    13     7     8 1   
    14     7    12 1   
    15     7    40 1   
    16     8     9 1   
    17     9    10 1   
    18     9    41 1   
    19     9    42 1   
    20    10    11 1   
    21    10    43 1   
    22    10    44 1   
    23    11    12 1   
    24    11    13 1   
    25    12    45 1   
    26    12    46 1   
    27    13    14 2   
    28    13    15 1   
    29    15    16 ar  
    30    15    20 ar  
    31    16    17 ar  
    32    16    21 1   
    33    17    18 ar  
    34    17    47 1   
    35    18    19 ar  
    36    18    22 1   
    37    19    20 ar  
    38    19    48 1   
    39    20    49 1   
    40    22    23 2   
    41    23    24 1   
    42    23    25 2   
    43    23    26 1   
    44    26    27 1   
    45    26    30 1   
    46    27    28 1   
    47    27    50 1   
    48    27    51 1   
    49    28    29 ar  
    50    28    31 ar  
    51    29    30 1   
    52    29    34 ar  
    53    30    52 1   
    54    30    53 1   
    55    31    32 ar  
    56    32    33 ar  
    57    32    54 1   
    58    33    34 ar  
    59    33    55 1   
    60    34    56 1   
@<TRIPOS>SUBSTRUCTURE
     1 FIE         1 TEMP              0 ****  ****    0 ROOT
