@<TRIPOS>MOLECULE
FIF
   20    20     1     0     0
SMALL
bcc


@<TRIPOS>ATOM
      1 O6B         -2.5650     0.1200    -0.9820 o          1 FIF      -0.814300
      2 C6          -2.2040     0.1420     0.2230 c          1 FIF       0.946600
      3 O6A         -2.9170     0.4080     1.1970 o          1 FIF      -0.814300
      4 C5          -0.7160    -0.1650     0.5220 c6         1 FIF      -0.037900
      5 O5          -0.1220     1.0840     0.8340 os         1 FIF      -0.359600
      6 C4           0.0190    -0.8600    -0.6250 c6         1 FIF       0.158100
      7 O4          -0.1260    -0.1710    -1.8380 oh         1 FIF      -0.647800
      8 C3           1.5110    -0.9850    -0.3140 c6         1 FIF       0.109100
      9 O3           1.6420    -1.9730     0.6850 oh         1 FIF      -0.595800
     10 C2           2.0960     0.3310     0.2030 c6         1 FIF       0.117600
     11 F2           2.2460     1.2180    -0.8620 f          1 FIF      -0.236300
     12 C1           1.2110     0.9530     1.2600 c6         1 FIF       0.114400
     13 H2          -0.6730    -0.8230     1.4030 h1         1 FIF       0.035700
     14 H3          -0.3840    -1.8840    -0.6950 h1         1 FIF       0.033700
     15 H4          -1.0870     0.0350    -1.8510 ho         1 FIF       0.477000
     16 H5           2.0400    -1.2750    -1.2320 h1         1 FIF       0.044700
     17 H6           2.5750    -2.1770     0.7980 ho         1 FIF       0.384000
     18 H7           3.0920     0.1580     0.6240 h1         1 FIF       0.015700
     19 H8           1.5750     1.9510     1.5150 h1         1 FIF       0.035700
     20 H9           1.2780     0.3360     2.1660 h1         1 FIF       0.035700
@<TRIPOS>BOND
     1     1     2 1   
     2     2     3 1   
     3     2     4 1   
     4     4     5 1   
     5     4     6 1   
     6     4    13 1   
     7     5    12 1   
     8     6     7 1   
     9     6     8 1   
    10     6    14 1   
    11     7    15 1   
    12     8     9 1   
    13     8    10 1   
    14     8    16 1   
    15     9    17 1   
    16    10    11 1   
    17    10    12 1   
    18    10    18 1   
    19    12    19 1   
    20    12    20 1   
@<TRIPOS>SUBSTRUCTURE
     1 FIF         1 TEMP              0 ****  ****    0 ROOT
