@<TRIPOS>MOLECULE
FIF
   20    20     1     0     0
SMALL
No Charge or Current Charge


@<TRIPOS>ATOM
      1 O6B         -2.8100     0.9580    -0.2300 o          1 FIF      -0.709000
      2 C6          -2.3450    -0.0920     0.1990 c          1 FIF       0.736000
      3 O6A         -3.0240    -0.7840     0.9490 o          1 FIF      -0.709000
      4 C5          -0.8040    -0.1210     0.4800 c6         1 FIF      -0.014700
      5 O5          -0.1740     1.1970     0.5520 os         1 FIF      -0.406000
      6 C4          -0.0660    -0.9860    -0.5800 c6         1 FIF       0.181300
      7 O4          -0.1930    -0.3740    -1.8770 oh         1 FIF      -0.770000
      8 C3           1.4490    -1.1180    -0.1810 c6         1 FIF       0.132300
      9 O3           1.5960    -1.9580     0.9850 oh         1 FIF      -0.658000
     10 C2           2.0840     0.2890     0.0860 c6         1 FIF       0.136300
     11 F2           2.2300     0.9720    -1.1420 f          1 FIF      -0.255000
     12 C1           1.1940     1.1550     1.0240 c6         1 FIF       0.137600
     13 H2          -0.6880    -0.6020     1.4630 h1         1 FIF       0.035700
     14 H3          -0.5140    -1.9900    -0.5990 h1         1 FIF       0.033700
     15 H4           0.1330     0.5510    -1.7530 ho         1 FIF       0.576000
     16 H5           1.9850    -1.5840    -1.0220 h1         1 FIF       0.044700
     17 H6           2.5480    -2.1920     1.0530 ho         1 FIF       0.423000
     18 H7           3.0910     0.1820     0.5110 h1         1 FIF       0.015700
     19 H8           1.5880     2.1800     1.0720 h1         1 FIF       0.035700
     20 H9           1.2090     0.7400     2.0420 h1         1 FIF       0.035700
@<TRIPOS>BOND
     1     1     2 1   
     2     2     3 1   
     3     2     4 1   
     4     4     5 1   
     5     4     6 1   
     6     4    13 1   
     7     5    12 1   
     8     6     7 1   
     9     6     8 1   
    10     6    14 1   
    11     7    15 1   
    12     8     9 1   
    13     8    10 1   
    14     8    16 1   
    15     9    17 1   
    16    10    11 1   
    17    10    12 1   
    18    10    18 1   
    19    12    19 1   
    20    12    20 1   
@<TRIPOS>SUBSTRUCTURE
     1 FIF         1 TEMP              0 ****  ****    0 ROOT
