@<TRIPOS>MOLECULE
FIG
   29    30     1     0     0
SMALL
bcc


@<TRIPOS>ATOM
      1 C            1.4300    -0.2590    -0.0120 c3         1 FIG      -0.102300
      2 N           -1.2700     0.5880    -0.0070 nc         1 FIG      -0.674300
      3 O            2.9490    -2.0700    -0.0200 o          1 FIG      -0.513100
      4 S            0.2400    -1.6190    -0.0180 ss         1 FIG      -0.202300
      5 C1           2.8120    -0.8660    -0.0110 c          1 FIG       0.591700
      6 N1          -2.3730    -1.4500     0.0130 ns         1 FIG      -0.486400
      7 O1          -6.0520     0.7100     0.2040 o          1 FIG      -0.808800
      8 C2           3.9710     0.0580     0.0040 ca         1 FIG      -0.170600
      9 O2          -4.8470     2.5660    -0.0420 o          1 FIG      -0.808800
     10 C3           3.8080     1.4440     0.0130 ca         1 FIG      -0.078500
     11 O3          -4.6020    -1.7200     0.0250 o          1 FIG      -0.596500
     12 C4           4.9160     2.2770     0.0280 ca         1 FIG      -0.146500
     13 C5           6.1930     1.7340     0.0340 ca         1 FIG      -0.105000
     14 C6           6.3640     0.3540     0.0250 ca         1 FIG      -0.146500
     15 C7           5.2600    -0.4800     0.0100 ca         1 FIG      -0.078500
     16 C8          -1.2520    -0.7060    -0.0030 cd         1 FIG       0.472800
     17 C9          -2.4990     1.1640     0.0070 cc         1 FIG       0.086600
     18 C10         -3.6990     0.5170     0.0290 cd         1 FIG      -0.262400
     19 C11         -4.9860     1.3300     0.0640 c          1 FIG       0.934800
     20 C12         -3.6760    -0.9310     0.0250 c          1 FIG       0.707700
     21 H            1.2860     0.3730    -0.8890 h1         1 FIG       0.104700
     22 HA           1.2820     0.3670     0.8690 h1         1 FIG       0.104700
     23 HN1         -2.3070    -2.4620     0.0120 hn         1 FIG       0.310500
     24 H3           2.8220     1.8890     0.0080 ha         1 FIG       0.148000
     25 H4           4.7810     3.3500     0.0350 ha         1 FIG       0.132500
     26 H5           7.0560     2.3860     0.0470 ha         1 FIG       0.127000
     27 H6           7.3590    -0.0700     0.0290 ha         1 FIG       0.132500
     28 H7           5.3960    -1.5530     0.0030 ha         1 FIG       0.148000
     29 H9          -2.4940     2.2470     0.0040 h4         1 FIG       0.180000
@<TRIPOS>BOND
     1     1     4 1   
     2     1     5 1   
     3     1    21 1   
     4     1    22 1   
     5     2    16 2   
     6     2    17 1   
     7     3     5 2   
     8     4    16 1   
     9     5     8 1   
    10     6    16 1   
    11     6    20 1   
    12     6    23 1   
    13     7    19 1   
    14     8    10 ar  
    15     8    15 ar  
    16     9    19 1   
    17    10    12 ar  
    18    10    24 1   
    19    11    20 2   
    20    12    13 ar  
    21    12    25 1   
    22    13    14 ar  
    23    13    26 1   
    24    14    15 ar  
    25    14    27 1   
    26    15    28 1   
    27    17    18 2   
    28    17    29 1   
    29    18    19 1   
    30    18    20 1   
@<TRIPOS>SUBSTRUCTURE
     1 FIG         1 TEMP              0 ****  ****    0 ROOT
