@<TRIPOS>MOLECULE
FIG
   29    30     1     0     0
SMALL
No Charge or Current Charge


@<TRIPOS>ATOM
      1 C            1.4500    -0.4030     0.0110 c3         1 FIG      -0.054400
      2 N           -1.3080     0.5110     0.0240 nc         1 FIG      -0.674300
      3 O            3.1030    -2.1600    -0.0050 o          1 FIG      -0.513100
      4 S            0.1240    -1.7170     0.0050 ss         1 FIG      -0.250200
      5 C1           2.8880    -0.9520     0.0040 c          1 FIG       0.591700
      6 N1          -2.5610    -1.4970     0.0120 ns         1 FIG      -0.419400
      7 O1          -6.0690     0.8350     0.0370 o          1 FIG      -0.703500
      8 C2           4.0440     0.0320     0.0080 ca         1 FIG      -0.170600
      9 O2          -4.8610     2.5900     0.0470 o          1 FIG      -0.703500
     10 C3           3.8310     1.4330     0.0180 ca         1 FIG      -0.060500
     11 O3          -4.7900    -1.6220     0.0160 o          1 FIG      -0.521000
     12 C4           4.9210     2.3210     0.0210 ca         1 FIG      -0.128500
     13 C5           6.2350     1.8300     0.0150 ca         1 FIG      -0.087000
     14 C6           6.4610     0.4460     0.0040 ca         1 FIG      -0.128500
     15 C7           5.3760    -0.4470     0.0010 ca         1 FIG      -0.060500
     16 C8          -1.3930    -0.8120     0.0150 cd         1 FIG       0.472800
     17 C9          -2.5040     1.2140     0.0320 cc         1 FIG       0.036600
     18 C10         -3.7300     0.5550     0.0300 cd         1 FIG      -0.262400
     19 C11         -4.9740     1.3730     0.0380 c          1 FIG       0.724200
     20 C12         -3.7890    -0.9230     0.0190 c          1 FIG       0.565200
     21 H            1.3310     0.2320    -0.8740 h1         1 FIG       0.104700
     22 HA           1.3350     0.2190     0.9050 h1         1 FIG       0.104700
     23 HN1         -2.5450    -2.5060     0.0040 hn         1 FIG       0.310500
     24 H3           2.8270     1.8530     0.0240 ha         1 FIG       0.130000
     25 H4           4.7440     3.3950     0.0300 ha         1 FIG       0.114500
     26 H5           7.0760     2.5210     0.0170 ha         1 FIG       0.109000
     27 H6           7.4790     0.0630    -0.0010 ha         1 FIG       0.114500
     28 H7           5.5780    -1.5170    -0.0070 ha         1 FIG       0.130000
     29 H9          -2.4120     2.3000     0.0400 h4         1 FIG       0.230000
@<TRIPOS>BOND
     1     1     4 1   
     2     1     5 1   
     3     1    21 1   
     4     1    22 1   
     5     2    16 2   
     6     2    17 1   
     7     3     5 2   
     8     4    16 1   
     9     5     8 1   
    10     6    16 1   
    11     6    20 1   
    12     6    23 1   
    13     7    19 1   
    14     8    10 ar  
    15     8    15 ar  
    16     9    19 1   
    17    10    12 ar  
    18    10    24 1   
    19    11    20 2   
    20    12    13 ar  
    21    12    25 1   
    22    13    14 ar  
    23    13    26 1   
    24    14    15 ar  
    25    14    27 1   
    26    15    28 1   
    27    17    18 2   
    28    17    29 1   
    29    18    19 1   
    30    18    20 1   
@<TRIPOS>SUBSTRUCTURE
     1 FIG         1 TEMP              0 ****  ****    0 ROOT
