@<TRIPOS>MOLECULE
FIH
   39    41     1     0     0
SMALL
No Charge or Current Charge


@<TRIPOS>ATOM
      1 C1          -3.6350     2.0500     0.2850 ca         1 FIH      -0.153000
      2 C2          -4.7560     1.4140     0.8380 ca         1 FIH       0.145000
      3 C3          -4.7110     0.0480     1.1490 ca         1 FIH      -0.153000
      4 C4          -3.5370    -0.6890     0.9040 ca         1 FIH      -0.087000
      5 C5          -2.4050    -0.0640     0.3410 ca         1 FIH       0.019000
      6 C6          -2.4620     1.3140     0.0380 ca         1 FIH      -0.087000
      7 C7           0.8050    -2.3500     0.0330 cc         1 FIH      -0.256600
      8 C8           0.8000    -1.4080    -0.9650 cd         1 FIH       0.174000
      9 C9          -0.3390    -0.5570    -0.9440 cd         1 FIH      -0.104000
     10 C10         -1.1870    -0.8380     0.0990 cc         1 FIH      -0.240000
     11 S11         -0.6260    -2.2140     1.0470 ss         1 FIH       0.274000
     12 F12         -5.8810     2.1220     1.0750 f          1 FIH      -0.194000
     13 O15          1.7160    -4.1240     1.2180 o          1 FIH      -0.700500
     14 O16          2.8400    -3.3730    -0.4490 o          1 FIH      -0.700500
     15 S18          2.6390     0.1310    -2.1670 sy         1 FIH       1.118600
     16 C19          1.4800     2.3000    -0.8490 ca         1 FIH       0.002500
     17 C20          2.3290     1.1800    -0.7410 ca         1 FIH      -0.297500
     18 C21          2.9080     0.8590     0.5020 ca         1 FIH       0.002500
     19 C22          2.6350     1.6520     1.6300 ca         1 FIH      -0.135500
     20 C23          1.7830     2.7670     1.5290 ca         1 FIH      -0.033300
     21 C24          1.2110     3.0880     0.2840 ca         1 FIH      -0.135500
     22 C25          1.4850     3.6210     2.7510 c3         1 FIH      -0.049800
     23 O26          2.0290     0.7010    -3.3720 o          1 FIH      -0.564000
     24 O27          4.0220    -0.3460    -2.1410 o          1 FIH      -0.564000
     25 H1          -3.6730     3.1120     0.0520 ha         1 FIH       0.121500
     26 H3          -5.5820    -0.4390     1.5790 ha         1 FIH       0.121500
     27 H4          -3.5150    -1.7490     1.1440 ha         1 FIH       0.124500
     28 H6          -1.5940     1.8220    -0.3750 ha         1 FIH       0.124500
     29 H9          -0.5060     0.2290    -1.6720 ha         1 FIH       0.144000
     30 H17          2.5430    -1.9420    -1.7030 hn         1 FIH       0.548000
     31 H21          3.5600    -0.0080     0.6010 ha         1 FIH       0.137000
     32 H22          3.0840     1.3940     2.5860 ha         1 FIH       0.107000
     33 H24          0.5530     3.9480     0.1920 ha         1 FIH       0.107000
     34 H251         2.1930     4.4550     2.8260 hc         1 FIH       0.039033
     35 H252         0.4730     4.0410     2.7070 hc         1 FIH       0.039033
     36 H253         1.5570     3.0350     3.6750 hc         1 FIH       0.039033
     37 C14          1.8590    -3.3530     0.2830 c          1 FIH       0.738600
     38 N17          1.7880    -1.2840    -1.8970 nu         1 FIH      -0.810100
     39 H19          1.0200     2.5600    -1.8010 ha         1 FIH       0.137000
@<TRIPOS>BOND
     1     1     2 ar  
     2     1     6 ar  
     3     1    25 1   
     4     2     3 ar  
     5     2    12 1   
     6     3     4 ar  
     7     3    26 1   
     8     4     5 ar  
     9     4    27 1   
    10     5     6 ar  
    11     5    10 1   
    12     6    28 1   
    13     7     8 2   
    14     7    11 1   
    15     7    37 1   
    16     8     9 1   
    17     8    38 1   
    18     9    10 2   
    19     9    29 1   
    20    10    11 1   
    21    13    37 1   
    22    14    37 1   
    23    15    17 1   
    24    15    23 2   
    25    15    24 2   
    26    15    38 1   
    27    16    17 ar  
    28    16    21 ar  
    29    16    39 1   
    30    17    18 ar  
    31    18    19 ar  
    32    18    31 1   
    33    19    20 ar  
    34    19    32 1   
    35    20    21 ar  
    36    20    22 1   
    37    21    33 1   
    38    22    34 1   
    39    22    35 1   
    40    22    36 1   
    41    30    38 1   
@<TRIPOS>SUBSTRUCTURE
     1 FIH         1 TEMP              0 ****  ****    0 ROOT
