@<TRIPOS>MOLECULE
FIH
   39    41     1     0     0
SMALL
bcc


@<TRIPOS>ATOM
      1 C1          -4.7080     1.4700    -0.7650 ca         1 FIH      -0.171000
      2 C2          -5.6380     0.7820    -0.0090 ca         1 FIH       0.109900
      3 C3          -5.3000    -0.3420     0.7200 ca         1 FIH      -0.171000
      4 C4          -3.9890    -0.7890     0.6810 ca         1 FIH      -0.105000
      5 C5          -3.0180    -0.1200    -0.0680 ca         1 FIH       0.019000
      6 C6          -3.4000     1.0150    -0.7860 ca         1 FIH      -0.105000
      7 C7           0.5660    -1.6090     0.4090 cc         1 FIH      -0.111700
      8 C8           0.5220    -1.0220    -0.8280 cd         1 FIH       0.035600
      9 C9          -0.7340    -0.4390    -1.1320 cd         1 FIH      -0.122000
     10 C10         -1.6340    -0.5890    -0.1110 cc         1 FIH      -0.095100
     11 S11         -0.9380    -1.4480     1.2130 ss         1 FIH      -0.015800
     12 F12         -6.9050     1.2200     0.0200 f          1 FIH      -0.158900
     13 O15          1.5240    -2.7130     2.2230 o          1 FIH      -0.805800
     14 O16          2.7380    -2.4650     0.3580 o          1 FIH      -0.805800
     15 S18          2.3040     0.4090    -2.1160 sy         1 FIH       1.260200
     16 C19          1.6330     2.2390    -0.1920 ca         1 FIH      -0.015500
     17 C20          2.5440     1.2730    -0.5950 ca         1 FIH      -0.297500
     18 C21          3.6030     0.9050     0.2250 ca         1 FIH      -0.015500
     19 C22          3.7540     1.5280     1.4510 ca         1 FIH      -0.153500
     20 C23          2.8580     2.5080     1.8780 ca         1 FIH      -0.033300
     21 C24          1.7980     2.8500     1.0400 ca         1 FIH      -0.153500
     22 C25          3.0460     3.1950     3.1960 c3         1 FIH      -0.049800
     23 O26          1.3210     1.1330    -2.9050 o          1 FIH      -0.634800
     24 O27          3.5960     0.0860    -2.6990 o          1 FIH      -0.634800
     25 H1          -4.9950     2.3540    -1.3190 ha         1 FIH       0.139500
     26 H3          -6.0450    -0.8670     1.3020 ha         1 FIH       0.139500
     27 H4          -3.7320    -1.6850     1.2330 ha         1 FIH       0.142500
     28 H6          -2.6670     1.5670    -1.3590 ha         1 FIH       0.142500
     29 H9          -0.9720     0.0350    -2.0730 ha         1 FIH       0.162000
     30 H17          2.3490    -1.6570    -1.2320 hn         1 FIH       0.492800
     31 H21          4.3090     0.1430    -0.0790 ha         1 FIH       0.155000
     32 H22          4.5790     1.2410     2.0900 ha         1 FIH       0.125000
     33 H24          1.0850     3.6020     1.3540 ha         1 FIH       0.125000
     34 H251         3.6370     4.1050     3.0720 hc         1 FIH       0.039033
     35 H252         2.0930     3.4860     3.6360 hc         1 FIH       0.039033
     36 H253         3.5720     2.5600     3.9070 hc         1 FIH       0.039033
     37 C14          1.7060    -2.3240     1.0610 c          1 FIH       0.949200
     38 N17          1.6380    -1.0550    -1.6860 nu         1 FIH      -0.616500
     39 H19          0.8030     2.5220    -0.8250 ha         1 FIH       0.155000
@<TRIPOS>BOND
     1     1     2 ar  
     2     1     6 ar  
     3     1    25 1   
     4     2     3 ar  
     5     2    12 1   
     6     3     4 ar  
     7     3    26 1   
     8     4     5 ar  
     9     4    27 1   
    10     5     6 ar  
    11     5    10 1   
    12     6    28 1   
    13     7     8 2   
    14     7    11 1   
    15     7    37 1   
    16     8     9 1   
    17     8    38 1   
    18     9    10 2   
    19     9    29 1   
    20    10    11 1   
    21    13    37 1   
    22    14    37 1   
    23    15    17 1   
    24    15    23 2   
    25    15    24 2   
    26    15    38 1   
    27    16    17 ar  
    28    16    21 ar  
    29    16    39 1   
    30    17    18 ar  
    31    18    19 ar  
    32    18    31 1   
    33    19    20 ar  
    34    19    32 1   
    35    20    21 ar  
    36    20    22 1   
    37    21    33 1   
    38    22    34 1   
    39    22    35 1   
    40    22    36 1   
    41    30    38 1   
@<TRIPOS>SUBSTRUCTURE
     1 FIH         1 TEMP              0 ****  ****    0 ROOT
