@<TRIPOS>MOLECULE
FII
   52    51     1     0     0
SMALL
No Charge or Current Charge


@<TRIPOS>ATOM
      1 C1          -0.6910     1.0350    10.3380 c3         1 FII      -0.051400
      2 C2          -0.5920     0.9440     8.8260 c2         1 FII      -0.129400
      3 C6           0.6250     1.6800     8.2830 c3         1 FII      -0.051400
      4 C10         -1.4940     0.2750     8.0830 c2         1 FII      -0.208200
      5 C11         -1.5230     0.1320     6.5710 c3         1 FII      -0.041200
      6 C12         -0.6990    -1.0780     6.0820 c3         1 FII      -0.030200
      7 C15         -0.6340    -1.1850     4.5640 c2         1 FII      -0.142400
      8 C18         -1.9290    -1.7040     3.9490 c3         1 FII      -0.048900
      9 C22          0.4800    -0.8630     3.8770 c2         1 FII      -0.193200
     10 C23          0.6890    -0.8940     2.3710 c3         1 FII      -0.046200
     11 C24          1.6250     0.2340     1.8820 c3         1 FII      -0.026200
     12 C27          1.7780     0.2750     0.3680 c2         1 FII      -0.134400
     13 C30          2.7110    -0.8020    -0.1730 c3         1 FII      -0.052900
     14 C34          1.1550     1.1980    -0.3900 c2         1 FII      -0.187200
     15 C35          1.2390     1.3680    -1.8940 c3         1 FII       0.179800
     16 O36          0.4040     0.3680    -2.5050 os         1 FII      -0.256100
     17 N42          0.3790     0.5040    -3.9430 ns         1 FII      -0.411400
     18 C43          1.2030    -0.2980    -4.7100 c          1 FII       0.622100
     19 O44          2.0410    -1.0480    -4.2250 o          1 FII      -0.711100
     20 C45          1.0550    -0.1100    -6.1930 c3         1 FII      -0.478400
     21 P46         -0.1180    -1.3640    -6.7390 p5         1 FII       1.302500
     22 O49         -1.3790    -1.2030    -5.9630 o          1 FII      -0.900167
     23 O50         -0.3710    -1.1160    -8.1860 o          1 FII      -0.900167
     24 O51          0.4670    -2.7210    -6.5470 o          1 FII      -0.900167
     25 H11          0.1910     0.5970    10.8190 hc         1 FII       0.034700
     26 H12         -0.7690     2.0780    10.6660 hc         1 FII       0.034700
     27 H13         -1.5710     0.5040    10.7210 hc         1 FII       0.034700
     28 H61          0.7430     1.5700     7.2000 hc         1 FII       0.034700
     29 H62          0.5620     2.7530     8.4990 hc         1 FII       0.034700
     30 H63          1.5470     1.3030     8.7420 hc         1 FII       0.034700
     31 H101        -2.3310    -0.2250     8.5750 ha         1 FII       0.158000
     32 H111        -2.5620     0.0270     6.2360 hc         1 FII       0.049200
     33 H112        -1.1460     1.0410     6.0870 hc         1 FII       0.049200
     34 H121         0.3150    -0.9840     6.4920 hc         1 FII       0.036200
     35 H122        -1.1100    -1.9980     6.5150 hc         1 FII       0.036200
     36 H181        -1.8320    -1.9370     2.8840 hc         1 FII       0.038367
     37 H182        -2.2550    -2.6280     4.4410 hc         1 FII       0.038367
     38 H183        -2.7380    -0.9710     4.0500 hc         1 FII       0.038367
     39 H221         1.3570    -0.5160     4.4260 ha         1 FII       0.152000
     40 H231         1.1140    -1.8630     2.0850 hc         1 FII       0.057700
     41 H232        -0.2620    -0.7970     1.8360 hc         1 FII       0.057700
     42 H241         1.2170     1.1880     2.2390 hc         1 FII       0.026700
     43 H242         2.6070     0.1310     2.3610 hc         1 FII       0.026700
     44 H301         2.3300    -1.8060     0.0440 hc         1 FII       0.044367
     45 H302         2.8400    -0.7390    -1.2590 hc         1 FII       0.044367
     46 H303         3.7080    -0.7200     0.2760 hc         1 FII       0.044367
     47 H341         0.5070     1.9370     0.0820 ha         1 FII       0.149000
     48 H351         0.8920     2.3730    -2.1660 h1         1 FII       0.024700
     49 H352         2.2790     1.2680    -2.2310 h1         1 FII       0.024700
     50 HN1         -0.3710     1.0540    -4.3510 hn         1 FII       0.413500
     51 H451         0.5890     0.8490    -6.4400 hc         1 FII       0.040700
     52 H452         2.0000    -0.2680    -6.7210 hc         1 FII       0.040700
@<TRIPOS>BOND
     1     1     2 1   
     2     1    25 1   
     3     1    26 1   
     4     1    27 1   
     5     2     3 1   
     6     2     4 2   
     7     3    28 1   
     8     3    29 1   
     9     3    30 1   
    10     4     5 1   
    11     4    31 1   
    12     5     6 1   
    13     5    32 1   
    14     5    33 1   
    15     6     7 1   
    16     6    34 1   
    17     6    35 1   
    18     7     8 1   
    19     7     9 2   
    20     8    36 1   
    21     8    37 1   
    22     8    38 1   
    23     9    10 1   
    24     9    39 1   
    25    10    11 1   
    26    10    40 1   
    27    10    41 1   
    28    11    12 1   
    29    11    42 1   
    30    11    43 1   
    31    12    13 1   
    32    12    14 2   
    33    13    44 1   
    34    13    45 1   
    35    13    46 1   
    36    14    15 1   
    37    14    47 1   
    38    15    16 1   
    39    15    48 1   
    40    15    49 1   
    41    16    17 1   
    42    17    18 1   
    43    17    50 1   
    44    18    19 2   
    45    18    20 1   
    46    20    21 1   
    47    20    51 1   
    48    20    52 1   
    49    21    22 1   
    50    21    23 1   
    51    21    24 1   
@<TRIPOS>SUBSTRUCTURE
     1 FII         1 TEMP              0 ****  ****    0 ROOT
