@<TRIPOS>MOLECULE
FII
   52    51     1     0     0
SMALL
abcg2


@<TRIPOS>ATOM
      1 C1          -0.5320     0.8670    10.3160 c3         1 FII      -0.051400
      2 C2          -0.4950     0.9930     8.8200 c2         1 FII      -0.129400
      3 C6           0.3540     2.1220     8.3170 c3         1 FII      -0.051400
      4 C10         -1.1750     0.1430     8.0440 c2         1 FII      -0.208200
      5 C11         -1.2330     0.0980     6.5500 c3         1 FII      -0.041200
      6 C12         -0.5710    -1.1750     5.9990 c3         1 FII      -0.030200
      7 C15         -0.5980    -1.2560     4.4950 c2         1 FII      -0.142400
      8 C18         -1.9540    -1.4400     3.8800 c3         1 FII      -0.048900
      9 C22          0.5390    -1.1520     3.8030 c2         1 FII      -0.193200
     10 C23          0.7310    -1.1560     2.3190 c3         1 FII      -0.046200
     11 C24          1.2330     0.2090     1.8240 c3         1 FII      -0.026200
     12 C27          1.5060     0.2640     0.3460 c2         1 FII      -0.134400
     13 C30          2.6340    -0.5950    -0.1450 c3         1 FII      -0.052900
     14 C34          0.7790     1.0570    -0.4460 c2         1 FII      -0.187200
     15 C35          0.9870     1.2280    -1.9170 c3         1 FII       0.179800
     16 O36          0.3500     0.1440    -2.5960 os         1 FII      -0.256100
     17 N42          0.5630     0.2410    -3.9490 ns         1 FII      -0.411400
     18 C43          1.4750    -0.5880    -4.5080 c          1 FII       0.622100
     19 O44          2.2540    -1.2780    -3.8620 o          1 FII      -0.711100
     20 C45          1.4370    -0.5230    -6.0100 c3         1 FII      -0.478400
     21 P46         -0.2900    -0.7780    -6.7200 p5         1 FII       1.302500
     22 O49         -1.1110     0.3350    -6.0190 o          1 FII      -0.900167
     23 O50         -0.1380    -0.5650    -8.2230 o          1 FII      -0.900167
     24 O51         -0.6950    -2.1880    -6.2980 o          1 FII      -0.900167
     25 H11          0.4700     0.6950    10.7190 hc         1 FII       0.034700
     26 H12         -0.8970     1.7870    10.7790 hc         1 FII       0.034700
     27 H13         -1.1710     0.0460    10.6430 hc         1 FII       0.034700
     28 H61          0.3570     2.2210     7.2340 hc         1 FII       0.034700
     29 H62          0.0170     3.0720     8.7380 hc         1 FII       0.034700
     30 H63          1.3910     1.9940     8.6410 hc         1 FII       0.034700
     31 H101        -1.7440    -0.6400     8.5420 ha         1 FII       0.158000
     32 H111        -2.2810     0.1260     6.2370 hc         1 FII       0.049200
     33 H112        -0.7550     0.9690     6.0990 hc         1 FII       0.049200
     34 H121         0.4630    -1.2110     6.3500 hc         1 FII       0.036200
     35 H122        -1.0780    -2.0480     6.4260 hc         1 FII       0.036200
     36 H181        -1.9190    -1.6030     2.8050 hc         1 FII       0.038367
     37 H182        -2.4670    -2.2940     4.3290 hc         1 FII       0.038367
     38 H183        -2.5920    -0.5700     4.0570 hc         1 FII       0.038367
     39 H221         1.4570    -1.0180     4.3740 ha         1 FII       0.152000
     40 H231         1.4630    -1.9280     2.0620 hc         1 FII       0.057700
     41 H232        -0.1900    -1.4120     1.7900 hc         1 FII       0.057700
     42 H241         0.4980     0.9720     2.0930 hc         1 FII       0.026700
     43 H242         2.1550     0.4580     2.3620 hc         1 FII       0.026700
     44 H301         2.4750    -1.6370     0.1370 hc         1 FII       0.044367
     45 H302         2.7570    -0.5740    -1.2260 hc         1 FII       0.044367
     46 H303         3.5740    -0.2890     0.3200 hc         1 FII       0.044367
     47 H341        -0.0280     1.6310     0.0010 ha         1 FII       0.149000
     48 H351         0.5560     2.1790    -2.2490 h1         1 FII       0.024700
     49 H352         2.0510     1.2480    -2.1680 h1         1 FII       0.024700
     50 HN1         -0.2680     0.4670    -4.5450 hn         1 FII       0.413500
     51 H451         1.7920     0.4620    -6.3280 hc         1 FII       0.040700
     52 H452         2.1350    -1.2610    -6.4090 hc         1 FII       0.040700
@<TRIPOS>BOND
     1     1     2 1   
     2     1    25 1   
     3     1    26 1   
     4     1    27 1   
     5     2     3 1   
     6     2     4 2   
     7     3    28 1   
     8     3    29 1   
     9     3    30 1   
    10     4     5 1   
    11     4    31 1   
    12     5     6 1   
    13     5    32 1   
    14     5    33 1   
    15     6     7 1   
    16     6    34 1   
    17     6    35 1   
    18     7     8 1   
    19     7     9 2   
    20     8    36 1   
    21     8    37 1   
    22     8    38 1   
    23     9    10 1   
    24     9    39 1   
    25    10    11 1   
    26    10    40 1   
    27    10    41 1   
    28    11    12 1   
    29    11    42 1   
    30    11    43 1   
    31    12    13 1   
    32    12    14 2   
    33    13    44 1   
    34    13    45 1   
    35    13    46 1   
    36    14    15 1   
    37    14    47 1   
    38    15    16 1   
    39    15    48 1   
    40    15    49 1   
    41    16    17 1   
    42    17    18 1   
    43    17    50 1   
    44    18    19 2   
    45    18    20 1   
    46    20    21 1   
    47    20    51 1   
    48    20    52 1   
    49    21    22 1   
    50    21    23 1   
    51    21    24 1   
@<TRIPOS>SUBSTRUCTURE
     1 FII         1 TEMP              0 ****  ****    0 ROOT
