@<TRIPOS>MOLECULE
FIJ
   42    44     1     0     0
SMALL
No Charge or Current Charge


@<TRIPOS>ATOM
      1 C14        -18.9240   -26.6700   -32.0950 c3         1 FIJ      -0.084100
      2 C15        -18.7690   -24.1520   -32.3890 ca         1 FIJ      -0.158300
      3 C16        -19.4870   -23.1770   -31.6480 ca         1 FIJ      -0.011000
      4 C17        -18.8670   -21.9980   -31.2050 ca         1 FIJ      -0.009000
      5 C10        -16.7760   -22.7300   -32.1860 ca         1 FIJ      -0.240000
      6 C11        -17.3890   -23.9100   -32.6340 ca         1 FIJ       0.184100
      7 C12        -19.3310   -23.3470   -35.4630 c3         1 FIJ      -0.082100
      8 C13        -20.3860   -25.2550   -36.6950 c3         1 FIJ      -0.082100
      9 C01        -21.5080   -24.3030   -34.6030 ca         1 FIJ      -0.165300
     10 C02        -21.7940   -24.7230   -33.2800 ca         1 FIJ       0.182100
     11 C03        -23.0340   -24.4320   -32.6920 ca         1 FIJ      -0.238000
     12 C04        -23.9970   -23.6970   -33.3960 ca         1 FIJ       0.174100
     13 C05        -23.7160   -23.2460   -34.7020 ca         1 FIJ       0.056000
     14 C06        -22.4800   -23.5480   -35.2980 ca         1 FIJ      -0.034000
     15 C07        -20.1630   -24.6530   -35.2700 c6         1 FIJ       0.015300
     16 C08        -19.4070   -25.7140   -34.4150 c6         1 FIJ      -0.093400
     17 C09        -19.4830   -25.4510   -32.8820 c6         1 FIJ       0.259300
     18 C          -17.5090   -21.7730   -31.4800 ca         1 FIJ       0.193100
     19 O01        -20.8810   -25.4220   -32.5180 os         1 FIJ      -0.360100
     20 O02        -25.1960   -23.4190   -32.8000 oh         1 FIJ      -0.516100
     21 O03        -16.8890   -20.6340   -31.0560 oh         1 FIJ      -0.526100
     22 O          -16.6120   -24.8110   -33.2970 oh         1 FIJ      -0.538100
     23 Cl1        -24.8990   -22.3040   -35.6150 cl         1 FIJ      -0.194000
     24 Cl         -19.8100   -20.8120   -30.3010 cl         1 FIJ      -0.207000
     25 H1         -18.9490   -26.4840   -31.0140 hc         1 FIJ       0.053700
     26 H2         -19.5140   -27.5730   -32.2890 hc         1 FIJ       0.053700
     27 H3         -17.8880   -26.8950   -32.3680 hc         1 FIJ       0.053700
     28 H4         -20.5350   -23.3130   -31.4000 ha         1 FIJ       0.146000
     29 H5         -15.7220   -22.5480   -32.3810 ha         1 FIJ       0.134000
     30 H6         -19.2600   -22.7610   -34.5410 hc         1 FIJ       0.038200
     31 H7         -18.3100   -23.5660   -35.8000 hc         1 FIJ       0.038200
     32 H8         -19.7870   -22.6870   -36.2110 hc         1 FIJ       0.038200
     33 H9         -21.0550   -26.1240   -36.6580 hc         1 FIJ       0.038200
     34 H10        -20.8270   -24.5340   -37.3920 hc         1 FIJ       0.038200
     35 H11        -19.4390   -25.5880   -37.1370 hc         1 FIJ       0.038200
     36 H12        -23.2320   -24.7750   -31.6810 ha         1 FIJ       0.130000
     37 H13        -22.2870   -23.1860   -36.3040 ha         1 FIJ       0.129000
     38 H14        -19.8630   -26.6960   -34.6000 hc         1 FIJ       0.064200
     39 H15        -18.3730   -25.8180   -34.7610 hc         1 FIJ       0.064200
     40 H16        -25.1950   -23.8180   -31.9040 ho         1 FIJ       0.467000
     41 H17        -17.5570   -20.0950   -30.5800 ho         1 FIJ       0.481000
     42 H18        -15.7000   -24.4560   -33.3440 ho         1 FIJ       0.470000
@<TRIPOS>BOND
     1     1    17 1   
     2     1    25 1   
     3     1    26 1   
     4     1    27 1   
     5     2     3 ar  
     6     2     6 ar  
     7     2    17 1   
     8     3     4 ar  
     9     3    28 1   
    10     4    18 ar  
    11     4    24 1   
    12     5     6 ar  
    13     5    18 ar  
    14     5    29 1   
    15     6    22 1   
    16     7    15 1   
    17     7    30 1   
    18     7    31 1   
    19     7    32 1   
    20     8    15 1   
    21     8    33 1   
    22     8    34 1   
    23     8    35 1   
    24     9    10 ar  
    25     9    14 ar  
    26     9    15 1   
    27    10    11 ar  
    28    10    19 1   
    29    11    12 ar  
    30    11    36 1   
    31    12    13 ar  
    32    12    20 1   
    33    13    14 ar  
    34    13    23 1   
    35    14    37 1   
    36    15    16 1   
    37    16    17 1   
    38    16    38 1   
    39    16    39 1   
    40    17    19 1   
    41    18    21 1   
    42    20    40 1   
    43    21    41 1   
    44    22    42 1   
@<TRIPOS>SUBSTRUCTURE
     1 FIJ         1 TEMP              0 ****  ****    0 ROOT
