@<TRIPOS>MOLECULE
FIL
   41    42     1     0     0
SMALL
abcg2


@<TRIPOS>ATOM
      1 O19         -0.7890    -0.9960    -4.4010 o          1 FIL      -0.498000
      2 C18          0.2740    -0.5780    -4.7870 c          1 FIL       0.655100
      3 N20          0.6620    -0.4490    -6.0620 nt         1 FIL      -0.613000
      4 O21          1.2830    -0.1670    -3.9730 os         1 FIL      -0.335100
      5 N2           0.9700    -0.2460    -2.6370 n2         1 FIL      -0.292700
      6 C1           1.9260     0.1380    -1.8840 ce         1 FIL       0.443900
      7 C17          3.2690     0.6180    -2.3400 c3         1 FIL      -0.158400
      8 C3           1.6470     0.0790    -0.4330 ca         1 FIL      -0.142900
      9 C4           2.6600     0.2670     0.4920 ca         1 FIL      -0.090000
     10 C5           2.3960     0.2030     1.8590 ca         1 FIL      -0.185000
     11 C6           1.1150    -0.0400     2.3190 ca         1 FIL       0.126100
     12 O7           0.7580    -0.1170     3.6090 os         1 FIL      -0.316100
     13 C8           1.7680     0.0110     4.5910 c3         1 FIL       0.144900
     14 C9           0.0690    -0.2300     1.3840 ca         1 FIL       0.118100
     15 C16          0.3470    -0.1750     0.0340 ca         1 FIL      -0.140000
     16 O10         -1.1370    -0.4690     1.9230 os         1 FIL      -0.330100
     17 C11         -2.2710    -0.6580     1.0780 c5         1 FIL       0.165300
     18 C12         -2.7830     0.6660     0.5070 c5         1 FIL      -0.092900
     19 C13         -3.6900     1.2720     1.6000 c5         1 FIL      -0.075400
     20 C14         -3.8500     0.1810     2.6760 c5         1 FIL      -0.075400
     21 C15         -3.4060    -1.1070     1.9840 c5         1 FIL      -0.092900
     22 H201         0.0180    -0.6830    -6.7980 hn         1 FIL       0.329000
     23 H202         1.5490    -0.0500    -6.3190 hn         1 FIL       0.329000
     24 H171         3.3030     0.8330    -3.4030 hc         1 FIL       0.056700
     25 H172         3.5540     1.5190    -1.8000 hc         1 FIL       0.056700
     26 H173         4.0280    -0.1390    -2.1290 hc         1 FIL       0.056700
     27 H4           3.6760     0.4630     0.1790 ha         1 FIL       0.112000
     28 H5           3.2150     0.3470     2.5510 ha         1 FIL       0.119000
     29 H81          1.2810    -0.1180     5.5540 h1         1 FIL       0.040367
     30 H82          2.5420    -0.7530     4.4790 h1         1 FIL       0.040367
     31 H83          2.2400     0.9960     4.5650 h1         1 FIL       0.040367
     32 H16         -0.4410    -0.3190    -0.6910 ha         1 FIL       0.147000
     33 H11         -2.0380    -1.3970     0.3040 h1         1 FIL       0.058700
     34 H121        -1.9770     1.3360     0.2040 hc         1 FIL       0.055200
     35 H122        -3.3570     0.4470    -0.3950 hc         1 FIL       0.055200
     36 H131        -4.6570     1.5470     1.1760 hc         1 FIL       0.044450
     37 H132        -3.2620     2.1830     2.0170 hc         1 FIL       0.044450
     38 H141        -4.8690     0.1160     3.0590 hc         1 FIL       0.044450
     39 H142        -3.2040     0.3890     3.5310 hc         1 FIL       0.044450
     40 H151        -4.2080    -1.4970     1.3520 hc         1 FIL       0.055200
     41 H152        -3.1150    -1.9050     2.6680 hc         1 FIL       0.055200
@<TRIPOS>BOND
     1     1     2 2   
     2     2     3 1   
     3     2     4 1   
     4     3    22 1   
     5     3    23 1   
     6     4     5 1   
     7     5     6 2   
     8     6     7 1   
     9     6     8 1   
    10     7    24 1   
    11     7    25 1   
    12     7    26 1   
    13     8     9 ar  
    14     8    15 ar  
    15     9    10 ar  
    16     9    27 1   
    17    10    11 ar  
    18    10    28 1   
    19    11    12 1   
    20    11    14 ar  
    21    12    13 1   
    22    13    29 1   
    23    13    30 1   
    24    13    31 1   
    25    14    15 ar  
    26    14    16 1   
    27    15    32 1   
    28    16    17 1   
    29    17    18 1   
    30    17    21 1   
    31    17    33 1   
    32    18    19 1   
    33    18    34 1   
    34    18    35 1   
    35    19    20 1   
    36    19    36 1   
    37    19    37 1   
    38    20    21 1   
    39    20    38 1   
    40    20    39 1   
    41    21    40 1   
    42    21    41 1   
@<TRIPOS>SUBSTRUCTURE
     1 FIL         1 TEMP              0 ****  ****    0 ROOT
