@<TRIPOS>MOLECULE
FIL
   41    42     1     0     0
SMALL
No Charge or Current Charge


@<TRIPOS>ATOM
      1 O19          0.0260    -2.2790    -4.8890 o          1 FIL      -0.498000
      2 C18          0.9500    -1.5340    -5.1700 c          1 FIL       0.655100
      3 N20          1.4710    -1.4400    -6.4050 nt         1 FIL      -0.613000
      4 O21          1.6080    -0.6830    -4.3150 os         1 FIL      -0.335100
      5 N2           1.1500    -0.6840    -2.9600 n2         1 FIL      -0.292700
      6 C1           1.7730     0.1280    -2.1550 ce         1 FIL       0.443900
      7 C17          2.6630     1.2620    -2.6510 c3         1 FIL      -0.158400
      8 C3           1.4820     0.0470    -0.6800 ca         1 FIL      -0.142900
      9 C4           2.4850     0.3480     0.2670 ca         1 FIL      -0.090000
     10 C5           2.2410     0.2140     1.6440 ca         1 FIL      -0.185000
     11 C6           0.9830    -0.2310     2.1070 ca         1 FIL       0.126100
     12 O7           0.7100    -0.3790     3.4570 os         1 FIL      -0.316100
     13 C8           1.6770    -0.0760     4.4780 c3         1 FIL       0.144900
     14 C9          -0.0310    -0.5340     1.1700 ca         1 FIL       0.118100
     15 C16          0.2330    -0.4260    -0.2130 ca         1 FIL      -0.140000
     16 O10         -1.2560    -0.9990     1.6220 os         1 FIL      -0.330100
     17 C11         -2.3280    -0.1190     1.1770 c5         1 FIL       0.165300
     18 C12         -2.2300     1.2390     1.9550 c5         1 FIL      -0.092900
     19 C13         -3.6870     1.4940     2.4140 c5         1 FIL      -0.075400
     20 C14         -4.0730     0.0770     2.8940 c5         1 FIL      -0.075400
     21 C15         -3.6720    -0.7620     1.6520 c5         1 FIL      -0.092900
     22 H201         1.0930    -2.0060    -7.1490 hn         1 FIL       0.329000
     23 H202         2.2360    -0.8040    -6.5720 hn         1 FIL       0.329000
     24 H171         2.1860     1.8040    -3.4760 hc         1 FIL       0.056700
     25 H172         2.8680     2.0010    -1.8690 hc         1 FIL       0.056700
     26 H173         3.6230     0.8770    -3.0110 hc         1 FIL       0.056700
     27 H4           3.4720     0.6690    -0.0600 ha         1 FIL       0.112000
     28 H5           3.0440     0.4530     2.3350 ha         1 FIL       0.119000
     29 H81          1.2490    -0.2600     5.4710 h1         1 FIL       0.040367
     30 H82          2.5690    -0.7060     4.3690 h1         1 FIL       0.040367
     31 H83          1.9800     0.9780     4.4280 h1         1 FIL       0.040367
     32 H16         -0.5350    -0.7140    -0.9260 ha         1 FIL       0.147000
     33 H11         -2.3220     0.0050     0.0870 h1         1 FIL       0.058700
     34 H121        -1.5620     1.1700     2.8220 hc         1 FIL       0.055200
     35 H122        -1.8500     2.0480     1.3210 hc         1 FIL       0.055200
     36 H131        -4.3240     1.8370     1.5890 hc         1 FIL       0.044450
     37 H132        -3.7490     2.2410     3.2140 hc         1 FIL       0.044450
     38 H141        -5.1390    -0.0110     3.1310 hc         1 FIL       0.044450
     39 H142        -3.5090    -0.2200     3.7870 hc         1 FIL       0.044450
     40 H151        -4.4320    -0.6790     0.8670 hc         1 FIL       0.055200
     41 H152        -3.5760    -1.8290     1.8870 hc         1 FIL       0.055200
@<TRIPOS>BOND
     1     1     2 2   
     2     2     3 1   
     3     2     4 1   
     4     3    22 1   
     5     3    23 1   
     6     4     5 1   
     7     5     6 2   
     8     6     7 1   
     9     6     8 1   
    10     7    24 1   
    11     7    25 1   
    12     7    26 1   
    13     8     9 ar  
    14     8    15 ar  
    15     9    10 ar  
    16     9    27 1   
    17    10    11 ar  
    18    10    28 1   
    19    11    12 1   
    20    11    14 ar  
    21    12    13 1   
    22    13    29 1   
    23    13    30 1   
    24    13    31 1   
    25    14    15 ar  
    26    14    16 1   
    27    15    32 1   
    28    16    17 1   
    29    17    18 1   
    30    17    21 1   
    31    17    33 1   
    32    18    19 1   
    33    18    34 1   
    34    18    35 1   
    35    19    20 1   
    36    19    36 1   
    37    19    37 1   
    38    20    21 1   
    39    20    38 1   
    40    20    39 1   
    41    21    40 1   
    42    21    41 1   
@<TRIPOS>SUBSTRUCTURE
     1 FIL         1 TEMP              0 ****  ****    0 ROOT
