@<TRIPOS>MOLECULE
FIN
   46    47     1     0     0
SMALL
No Charge or Current Charge


@<TRIPOS>ATOM
      1 C14          3.1820     0.3840     0.3670 cp         1 FIN      -0.033000
      2 C15          3.6000    -0.8890    -0.0970 ca         1 FIN      -0.069500
      3 C16          4.8720    -1.4000     0.2180 ca         1 FIN      -0.177000
      4 C17          5.7610    -0.6430     1.0100 ca         1 FIN       0.111100
      5 C1           5.3630     0.6190     1.4770 ca         1 FIN      -0.177000
      6 C2           4.0910     1.1270     1.1610 ca         1 FIN      -0.069500
      7 O1           7.0210    -1.0900     1.3510 os         1 FIN      -0.355100
      8 C3           7.5230    -2.3680     0.9220 c3         1 FIN       0.154900
      9 C4           1.8260     0.9240     0.0290 cp         1 FIN      -0.039000
     10 C5           1.1030     1.7200     0.9530 ca         1 FIN      -0.128500
     11 C6          -0.1720     2.2240     0.6420 ca         1 FIN      -0.017500
     12 C7          -0.7550     1.9430    -0.6080 ca         1 FIN      -0.245500
     13 C8          -0.0540     1.1560    -1.5420 ca         1 FIN      -0.017500
     14 C9           1.2190     0.6540    -1.2230 ca         1 FIN      -0.128500
     15 S1          -2.4000     2.5720    -0.9930 sy         1 FIN       1.090600
     16 O2          -2.6890     2.4210    -2.4210 o          1 FIN      -0.599000
     17 O3          -2.6090     3.8400    -0.2870 o          1 FIN      -0.599000
     18 N1          -3.3880     1.4800    -0.2100 n7         1 FIN      -0.812300
     19 C10         -3.2400     0.0010    -0.4760 c3         1 FIN      -0.113500
     20 C11         -2.6200    -0.7440     0.7500 c3         1 FIN      -0.005700
     21 C12         -3.4440    -0.6290     2.0580 c3         1 FIN      -0.079100
     22 C13         -2.2570    -2.2110     0.4280 c3         1 FIN      -0.079100
     23 P1          -4.8380    -0.6630    -1.2650 p5         1 FIN       1.277500
     24 O4          -4.5240    -1.3570    -2.5490 o          1 FIN      -0.893500
     25 O5          -5.6510     0.5660    -1.5230 o          1 FIN      -0.893500
     26 O6          -5.5820    -1.5790    -0.3520 o          1 FIN      -0.893500
     27 H15          2.9260    -1.4950    -0.6980 ha         1 FIN       0.124500
     28 H16          5.1460    -2.3820    -0.1580 ha         1 FIN       0.109000
     29 H1           6.0440     1.2080     2.0850 ha         1 FIN       0.109000
     30 H2           3.8120     2.1130     1.5250 ha         1 FIN       0.124500
     31 H31          8.5400    -2.5240     1.3030 h1         1 FIN       0.032700
     32 H32          6.8900    -3.1820     1.2990 h1         1 FIN       0.032700
     33 H33          7.5570    -2.4260    -0.1730 h1         1 FIN       0.032700
     34 H5           1.5250     1.9360     1.9310 ha         1 FIN       0.098000
     35 H6          -0.7090     2.8210     1.3780 ha         1 FIN       0.156000
     36 H8          -0.4930     0.9280    -2.5120 ha         1 FIN       0.156000
     37 H9           1.7450     0.0580    -1.9640 ha         1 FIN       0.098000
     38 HN1         -4.2680     1.7190    -0.6940 hn         1 FIN       0.549000
     39 H10         -2.5370    -0.1370    -1.3080 h1         1 FIN       0.025700
     40 H11         -1.6630    -0.2500     0.9610 hc         1 FIN      -0.003300
     41 H121        -4.4090    -1.1390     1.9740 hc         1 FIN       0.024700
     42 H122        -2.8970    -1.0840     2.8930 hc         1 FIN       0.024700
     43 H123        -3.6300     0.4200     2.3180 hc         1 FIN       0.024700
     44 H131        -3.1540    -2.8170     0.2560 hc         1 FIN       0.024700
     45 H132        -1.6270    -2.2660    -0.4680 hc         1 FIN       0.024700
     46 H133        -1.6990    -2.6610     1.2580 hc         1 FIN       0.024700
@<TRIPOS>BOND
     1     1     2 ar  
     2     1     6 ar  
     3     1     9 1   
     4     2     3 ar  
     5     2    27 1   
     6     3     4 ar  
     7     3    28 1   
     8     4     5 ar  
     9     4     7 1   
    10     5     6 ar  
    11     5    29 1   
    12     6    30 1   
    13     7     8 1   
    14     8    31 1   
    15     8    32 1   
    16     8    33 1   
    17     9    10 ar  
    18     9    14 ar  
    19    10    11 ar  
    20    10    34 1   
    21    11    12 ar  
    22    11    35 1   
    23    12    13 ar  
    24    12    15 1   
    25    13    14 ar  
    26    13    36 1   
    27    14    37 1   
    28    15    16 2   
    29    15    17 2   
    30    15    18 1   
    31    18    19 1   
    32    18    38 1   
    33    19    20 1   
    34    19    23 1   
    35    19    39 1   
    36    20    21 1   
    37    20    22 1   
    38    20    40 1   
    39    21    41 1   
    40    21    42 1   
    41    21    43 1   
    42    22    44 1   
    43    22    45 1   
    44    22    46 1   
    45    23    24 1   
    46    23    25 1   
    47    23    26 1   
@<TRIPOS>SUBSTRUCTURE
     1 FIN         1 TEMP              0 ****  ****    0 ROOT
