@<TRIPOS>MOLECULE
FIN
   46    47     1     0     0
SMALL
abcg2


@<TRIPOS>ATOM
      1 C14          3.6120     0.3710     0.1670 cp         1 FIN      -0.033000
      2 C15          3.9950    -0.9000    -0.2550 ca         1 FIN      -0.069500
      3 C16          5.3260    -1.2920    -0.2790 ca         1 FIN      -0.177000
      4 C17          6.3180    -0.4000     0.1230 ca         1 FIN       0.111100
      5 C1           5.9500     0.8790     0.5510 ca         1 FIN      -0.177000
      6 C2           4.6210     1.2500     0.5720 ca         1 FIN      -0.069500
      7 O1           7.6330    -0.6760     0.1300 os         1 FIN      -0.355100
      8 C3           8.0610    -1.9450    -0.3280 c3         1 FIN       0.154900
      9 C4           2.1960     0.7780     0.1790 cp         1 FIN      -0.039000
     10 C5           1.6990     1.6190     1.1770 ca         1 FIN      -0.128500
     11 C6           0.3710     2.0120     1.1860 ca         1 FIN      -0.017500
     12 C7          -0.4810     1.5650     0.1860 ca         1 FIN      -0.245500
     13 C8          -0.0160     0.7180    -0.8120 ca         1 FIN      -0.017500
     14 C9           1.3130     0.3300    -0.8070 ca         1 FIN      -0.128500
     15 S1          -2.1480     2.1880     0.1190 sy         1 FIN       1.090600
     16 O2          -2.1530     3.2810    -0.8490 o          1 FIN      -0.599000
     17 O3          -2.5430     2.4870     1.4910 o          1 FIN      -0.599000
     18 N1          -3.0900     1.0220    -0.4910 n7         1 FIN      -0.812300
     19 C10         -3.1480    -0.3150     0.1200 c3         1 FIN      -0.113500
     20 C11         -4.1540    -0.4010     1.2720 c3         1 FIN      -0.005700
     21 C12         -5.5230     0.1710     0.9250 c3         1 FIN      -0.079100
     22 C13         -4.2720    -1.8370     1.7740 c3         1 FIN      -0.079100
     23 P1          -3.3790    -1.4840    -1.3720 p5         1 FIN       1.277500
     24 O4          -2.5480    -2.7220    -1.0560 o          1 FIN      -0.893500
     25 O5          -2.7840    -0.5900    -2.4970 o          1 FIN      -0.893500
     26 O6          -4.8720    -1.7470    -1.5670 o          1 FIN      -0.893500
     27 H15          3.2420    -1.6180    -0.5570 ha         1 FIN       0.124500
     28 H16          5.5670    -2.2930    -0.6070 ha         1 FIN       0.109000
     29 H1           6.7170     1.5810     0.8550 ha         1 FIN       0.109000
     30 H2           4.3680     2.2550     0.8880 ha         1 FIN       0.124500
     31 H31          9.1460    -1.9440    -0.2680 h1         1 FIN       0.032700
     32 H32          7.6750    -2.7560     0.2940 h1         1 FIN       0.032700
     33 H33          7.7660    -2.1240    -1.3650 h1         1 FIN       0.032700
     34 H5           2.3480     1.9610     1.9730 ha         1 FIN       0.098000
     35 H6           0.0110     2.6550     1.9770 ha         1 FIN       0.156000
     36 H8          -0.6830     0.3320    -1.5760 ha         1 FIN       0.156000
     37 H9           1.6700    -0.3180    -1.5970 ha         1 FIN       0.098000
     38 HN1         -2.9330     0.8640    -1.5080 hn         1 FIN       0.549000
     39 H10         -2.1630    -0.5840     0.5260 h1         1 FIN       0.025700
     40 H11         -3.7540     0.1970     2.1000 hc         1 FIN      -0.003300
     41 H121        -5.9580    -0.3780     0.0920 hc         1 FIN       0.024700
     42 H122        -6.1970     0.0980     1.7810 hc         1 FIN       0.024700
     43 H123        -5.4530     1.2220     0.6460 hc         1 FIN       0.024700
     44 H131        -4.7500    -2.4700     1.0270 hc         1 FIN       0.024700
     45 H132        -3.2950    -2.2680     2.0010 hc         1 FIN       0.024700
     46 H133        -4.8720    -1.8770     2.6850 hc         1 FIN       0.024700
@<TRIPOS>BOND
     1     1     2 ar  
     2     1     6 ar  
     3     1     9 1   
     4     2     3 ar  
     5     2    27 1   
     6     3     4 ar  
     7     3    28 1   
     8     4     5 ar  
     9     4     7 1   
    10     5     6 ar  
    11     5    29 1   
    12     6    30 1   
    13     7     8 1   
    14     8    31 1   
    15     8    32 1   
    16     8    33 1   
    17     9    10 ar  
    18     9    14 ar  
    19    10    11 ar  
    20    10    34 1   
    21    11    12 ar  
    22    11    35 1   
    23    12    13 ar  
    24    12    15 1   
    25    13    14 ar  
    26    13    36 1   
    27    14    37 1   
    28    15    16 2   
    29    15    17 2   
    30    15    18 1   
    31    18    19 1   
    32    18    38 1   
    33    19    20 1   
    34    19    23 1   
    35    19    39 1   
    36    20    21 1   
    37    20    22 1   
    38    20    40 1   
    39    21    41 1   
    40    21    42 1   
    41    21    43 1   
    42    22    44 1   
    43    22    45 1   
    44    22    46 1   
    45    23    24 1   
    46    23    25 1   
    47    23    26 1   
@<TRIPOS>SUBSTRUCTURE
     1 FIN         1 TEMP              0 ****  ****    0 ROOT
