@<TRIPOS>MOLECULE
FIO
   26    25     1     0     0
SMALL
bcc


@<TRIPOS>ATOM
      1 N10          2.8560     1.8370    -0.1980 n8         1 FIO      -0.893800
      2 C11          2.8280     0.4940     0.3620 c3         1 FIO       0.012500
      3 C12          4.0880    -0.3650     0.0860 c          1 FIO       0.902600
      4 O14          4.8750     0.0310    -0.7970 o          1 FIO      -0.838300
      5 C15          1.5880    -0.2530    -0.1370 c3         1 FIO      -0.047400
      6 C16          0.2790     0.4070     0.2700 c3         1 FIO      -0.094400
      7 C17         -0.9300    -0.3370    -0.2740 c3         1 FIO       0.229800
      8 N18         -2.1550     0.3060     0.1430 nu         1 FIO      -0.868200
      9 C19         -3.3740    -0.2220    -0.0910 c2         1 FIO       0.600200
     10 C20         -4.4980     0.6140     0.4830 c3         1 FIO       0.061600
     11 N21         -3.5220    -1.3130    -0.7360 n2         1 FIO      -0.846100
     12 F1          -5.7190     0.0210     0.2200 f          1 FIO      -0.246300
     13 HN10         3.6020     2.3580     0.2470 hn         1 FIO       0.327300
     14 H11          2.7340     0.5930     1.4500 h1         1 FIO       0.035700
     15 H15          1.6360    -0.3290    -1.2310 hc         1 FIO       0.042700
     16 H15A         1.6160    -1.2760     0.2420 hc         1 FIO       0.042700
     17 H16          0.2180     0.4460     1.3630 hc         1 FIO       0.038200
     18 H16A         0.2670     1.4410    -0.0820 hc         1 FIO       0.038200
     19 H17         -0.8800    -0.3810    -1.3670 h1         1 FIO       0.047200
     20 H17A        -0.9210    -1.3750     0.0760 h1         1 FIO       0.047200
     21 HN18        -2.0820     1.1550     0.6780 hn         1 FIO       0.428800
     22 H20         -4.3840     0.7110     1.5640 h1         1 FIO       0.053200
     23 H20A        -4.4910     1.6120     0.0400 h1         1 FIO       0.053200
     24 HN21        -4.5050    -1.5490    -0.8050 hn         1 FIO       0.383400
     25 H2           3.1490     1.7610    -1.1650 hn         1 FIO       0.327300
     26 OXT          4.2010    -1.4070     0.7650 o          1 FIO      -0.838300
@<TRIPOS>BOND
     1     1     2 1   
     2     1    13 1   
     3     1    25 1   
     4     2     3 1   
     5     2     5 1   
     6     2    14 1   
     7     3     4 1   
     8     3    26 1   
     9     5     6 1   
    10     5    15 1   
    11     5    16 1   
    12     6     7 1   
    13     6    17 1   
    14     6    18 1   
    15     7     8 1   
    16     7    19 1   
    17     7    20 1   
    18     8     9 1   
    19     8    21 1   
    20     9    10 1   
    21     9    11 2   
    22    10    12 1   
    23    10    22 1   
    24    10    23 1   
    25    11    24 1   
@<TRIPOS>SUBSTRUCTURE
     1 FIO         1 TEMP              0 ****  ****    0 ROOT
