@<TRIPOS>MOLECULE
FIO
   26    25     1     0     0
SMALL
No Charge or Current Charge


@<TRIPOS>ATOM
      1 N10          2.9720     1.9060    -0.1680 n8         1 FIO      -1.004200
      2 C11          2.8840     0.4920     0.3530 c3         1 FIO       0.012500
      3 C12          4.1690    -0.4100     0.1360 c          1 FIO       0.692000
      4 O14          4.6570    -0.4690    -0.9860 o          1 FIO      -0.733000
      5 C15          1.6240    -0.2280    -0.2010 c3         1 FIO      -0.047400
      6 C16          0.2770     0.3880     0.2530 c3         1 FIO      -0.094400
      7 C17         -0.9440    -0.3910    -0.2760 c3         1 FIO       0.229800
      8 N18         -2.1950     0.2290     0.1930 nu         1 FIO      -0.923400
      9 C19         -3.4690    -0.2140    -0.0910 c2         1 FIO       0.600200
     10 C20         -4.6270     0.5950     0.5010 c3         1 FIO       0.080300
     11 N21         -3.6010    -1.2550    -0.8170 n2         1 FIO      -0.846100
     12 F1          -5.8530     0.0960     0.1780 f          1 FIO      -0.265000
     13 HN10         3.7820     2.3710     0.2620 hn         1 FIO       0.382500
     14 H11          2.7530     0.5710     1.4420 h1         1 FIO       0.035700
     15 H15          1.6670    -0.2490    -1.2980 hc         1 FIO       0.042700
     16 H15A         1.6520    -1.2740     0.1290 hc         1 FIO       0.042700
     17 H16          0.2450     0.4080     1.3500 hc         1 FIO       0.038200
     18 H16A         0.2140     1.4270    -0.0930 hc         1 FIO       0.038200
     19 H17         -0.9160    -0.4010    -1.3740 h1         1 FIO       0.047200
     20 H17A        -0.8860    -1.4320     0.0740 h1         1 FIO       0.047200
     21 HN18        -2.1250     1.0680     0.7670 hn         1 FIO       0.484000
     22 H20         -4.5420     0.6090     1.5940 h1         1 FIO       0.053200
     23 H20A        -4.5740     1.6290     0.1390 h1         1 FIO       0.053200
     24 HN21        -4.6100    -1.4300    -0.9180 hn         1 FIO       0.383400
     25 H2           3.2290     1.8670    -1.1620 hn         1 FIO       0.382500
     26 OXT          4.6910    -0.9230     1.1170 o          1 FIO      -0.733000
@<TRIPOS>BOND
     1     1     2 1   
     2     1    13 1   
     3     1    25 1   
     4     2     3 1   
     5     2     5 1   
     6     2    14 1   
     7     3     4 1   
     8     3    26 1   
     9     5     6 1   
    10     5    15 1   
    11     5    16 1   
    12     6     7 1   
    13     6    17 1   
    14     6    18 1   
    15     7     8 1   
    16     7    19 1   
    17     7    20 1   
    18     8     9 1   
    19     8    21 1   
    20     9    10 1   
    21     9    11 2   
    22    10    12 1   
    23    10    22 1   
    24    10    23 1   
    25    11    24 1   
@<TRIPOS>SUBSTRUCTURE
     1 FIO         1 TEMP              0 ****  ****    0 ROOT
