@<TRIPOS>MOLECULE
FIQ
   22    23     1     0     0
SMALL
abcg2


@<TRIPOS>ATOM
      1 C10         14.4530    27.2180    -8.2730 cx         1 FIQ      -0.124500
      2 C01         19.7840    25.3250    -8.5910 c3         1 FIQ       0.083300
      3 C03         17.4370    24.9720    -8.0310 c          1 FIQ       0.617000
      4 C06         15.8500    26.7750    -8.3790 cc         1 FIQ       0.147400
      5 C07         16.8230    27.5800    -8.8590 cd         1 FIQ      -0.383200
      6 C08         18.1810    27.1210    -8.9500 c          1 FIQ       0.585200
      7 C11         13.2940    26.2850    -8.5200 cx         1 FIQ      -0.111900
      8 C12         13.5560    26.7780    -7.1420 cx         1 FIQ      -0.111900
      9 N02         18.4150    25.8140    -8.5120 n          1 FIQ      -0.371400
     10 N05         16.1750    25.5110    -7.9840 ns         1 FIQ      -0.521600
     11 O09         19.1090    27.7890    -9.3740 o          1 FIQ      -0.528000
     12 H1          14.3190    28.2380    -8.6110 hc         1 FIQ       0.103700
     13 H2          19.8320    24.3230    -8.1820 h1         1 FIQ       0.057700
     14 H3          20.1220    25.3020    -9.6250 h1         1 FIQ       0.057700
     15 H4          20.4480    25.9700    -8.0200 h1         1 FIQ       0.057700
     16 H5          16.5980    28.5850    -9.1820 ha         1 FIQ       0.221000
     17 H7          12.4580    26.6960    -9.0700 hc         1 FIQ       0.080700
     18 H8          13.5040    25.2480    -8.7490 hc         1 FIQ       0.080700
     19 H9          12.9050    27.5330    -6.7240 hc         1 FIQ       0.080700
     20 H10         13.9510    26.0840    -6.4100 hc         1 FIQ       0.080700
     21 H6          15.4670    24.8830    -7.6300 hn         1 FIQ       0.457000
     22 O04         17.6450    23.8330    -7.6680 o          1 FIQ      -0.559000
@<TRIPOS>BOND
     1     1     4 1   
     2     1     7 1   
     3     1     8 1   
     4     1    12 1   
     5     2     9 1   
     6     2    13 1   
     7     2    14 1   
     8     2    15 1   
     9     3     9 1   
    10     3    10 1   
    11     3    22 2   
    12     4     5 2   
    13     4    10 1   
    14     5     6 1   
    15     5    16 1   
    16     6     9 1   
    17     6    11 2   
    18     7     8 1   
    19     7    17 1   
    20     7    18 1   
    21     8    19 1   
    22     8    20 1   
    23    10    21 1   
@<TRIPOS>SUBSTRUCTURE
     1 FIQ         1 TEMP              0 ****  ****    0 ROOT
