@<TRIPOS>MOLECULE
FIQ
   22    23     1     0     0
SMALL
No Charge or Current Charge


@<TRIPOS>ATOM
      1 C10         14.4110    27.2460    -8.2550 cx         1 FIQ      -0.124500
      2 C01         19.8090    25.2680    -8.5810 c3         1 FIQ       0.083300
      3 C03         17.3960    25.0090    -8.0750 c          1 FIQ       0.617000
      4 C06         15.8350    26.8590    -8.3870 cc         1 FIQ       0.147400
      5 C07         16.8620    27.6440    -8.8280 cd         1 FIQ      -0.383200
      6 C08         18.2440    27.1630    -8.9220 c          1 FIQ       0.585200
      7 C11         13.2940    26.2640    -8.5460 cx         1 FIQ      -0.111900
      8 C12         13.5500    26.7190    -7.1250 cx         1 FIQ      -0.111900
      9 N02         18.4360    25.8350    -8.5160 n          1 FIQ      -0.371400
     10 N05         16.1570    25.5710    -8.0330 ns         1 FIQ      -0.521600
     11 O09         19.1490    27.8770    -9.3280 o          1 FIQ      -0.528000
     12 H1          14.2360    28.2780    -8.5540 hc         1 FIQ       0.103700
     13 H2          19.9470    24.4900    -7.8200 h1         1 FIQ       0.057700
     14 H3          19.9790    24.8320    -9.5730 h1         1 FIQ       0.057700
     15 H4          20.5600    26.0470    -8.3990 h1         1 FIQ       0.057700
     16 H5          16.7110    28.6710    -9.1360 ha         1 FIQ       0.221000
     17 H7          12.4070    26.6460    -9.0460 hc         1 FIQ       0.080700
     18 H8          13.5490    25.2410    -8.8120 hc         1 FIQ       0.080700
     19 H9          12.8330    27.4040    -6.6780 hc         1 FIQ       0.080700
     20 H10         13.9790    26.0040    -6.4270 hc         1 FIQ       0.080700
     21 H6          15.4320    24.9460    -7.7070 hn         1 FIQ       0.457000
     22 O04         17.5520    23.8460    -7.7420 o          1 FIQ      -0.559000
@<TRIPOS>BOND
     1     1     4 1   
     2     1     7 1   
     3     1     8 1   
     4     1    12 1   
     5     2     9 1   
     6     2    13 1   
     7     2    14 1   
     8     2    15 1   
     9     3     9 1   
    10     3    10 1   
    11     3    22 2   
    12     4     5 2   
    13     4    10 1   
    14     5     6 1   
    15     5    16 1   
    16     6     9 1   
    17     6    11 2   
    18     7     8 1   
    19     7    17 1   
    20     7    18 1   
    21     8    19 1   
    22     8    20 1   
    23    10    21 1   
@<TRIPOS>SUBSTRUCTURE
     1 FIQ         1 TEMP              0 ****  ****    0 ROOT
