@<TRIPOS>MOLECULE
FIR
   30    32     1     0     0
SMALL
No Charge or Current Charge


@<TRIPOS>ATOM
      1 O3I          3.6870     1.6540    -1.1340 o          1 FIR      -0.536000
      2 O6I          1.6510    -2.4050    -0.8930 o          1 FIR      -0.480000
      3 N1I          1.6540     1.0870    -0.2080 ns         1 FIR      -0.523900
      4 C2I          2.8300     0.8420    -0.8470 c          1 FIR       0.619000
      5 N4           2.8480    -0.4670    -1.1050 ns         1 FIR      -0.485500
      6 O10         -1.7130     0.1470     1.3960 os         1 FIR      -0.306100
      7 C16         -2.9540     0.1780    -0.6390 ca         1 FIR      -0.112000
      8 C11         -1.7140     0.1010     0.0190 ca         1 FIR       0.146100
      9 C12         -0.5110    -0.0290    -0.7210 ca         1 FIR      -0.157300
     10 C13         -0.5890    -0.0340    -2.1340 ca         1 FIR      -0.098000
     11 C14         -1.8300     0.0550    -2.7830 ca         1 FIR       0.141000
     12 C15         -3.0150     0.1550    -2.0420 ca         1 FIR      -0.102000
     13 C9          -0.4710     0.3790     2.1020 c6         1 FIR       0.086300
     14 C5           1.7880    -1.2040    -0.7130 c          1 FIR       0.571000
     15 F17         -1.8830     0.0430    -4.1330 f          1 FIR      -0.173000
     16 N21          0.4740     0.1230     4.4040 nt         1 FIR      -0.609000
     17 C19         -0.6450     0.2610     3.6510 c          1 FIR       0.611100
     18 C7I          0.8510    -0.1420    -0.0210 c5         1 FIR       0.088700
     19 C8I          0.6760    -0.4620     1.4870 c6         1 FIR      -0.111400
     20 H1I          1.4070     2.0350     0.0490 hn         1 FIR       0.349500
     21 HN4          3.6270    -0.8880    -1.5860 hn         1 FIR       0.360500
     22 H16         -3.8680     0.2650    -0.0560 ha         1 FIR       0.141000
     23 H13          0.3120    -0.1060    -2.7380 ha         1 FIR       0.135000
     24 H15         -3.9730     0.2200    -2.5520 ha         1 FIR       0.139000
     25 H9          -0.2080     1.4340     1.9440 h1         1 FIR       0.048700
     26 H211         0.3840     0.0480     5.4070 hn         1 FIR       0.319500
     27 H212         1.3860     0.1130     3.9730 hn         1 FIR       0.319500
     28 H8I1         1.6280    -0.2900     2.0070 hc         1 FIR       0.089700
     29 H8I2         0.4380    -1.5280     1.6150 hc         1 FIR       0.089700
     30 O20         -1.7340     0.2920     4.2050 o          1 FIR      -0.559100
@<TRIPOS>BOND
     1     1     4 2   
     2     2    14 2   
     3     3     4 1   
     4     3    18 1   
     5     3    20 1   
     6     4     5 1   
     7     5    14 1   
     8     5    21 1   
     9     6     8 1   
    10     6    13 1   
    11     7     8 ar  
    12     7    12 ar  
    13     7    22 1   
    14     8     9 ar  
    15     9    10 ar  
    16     9    18 1   
    17    10    11 ar  
    18    10    23 1   
    19    11    12 ar  
    20    11    15 1   
    21    12    24 1   
    22    13    17 1   
    23    13    19 1   
    24    13    25 1   
    25    14    18 1   
    26    16    17 1   
    27    16    26 1   
    28    16    27 1   
    29    17    30 2   
    30    18    19 1   
    31    19    28 1   
    32    19    29 1   
@<TRIPOS>SUBSTRUCTURE
     1 FIR         1 TEMP              0 ****  ****    0 ROOT
