@<TRIPOS>MOLECULE
FIR
   30    32     1     0     0
SMALL
abcg2


@<TRIPOS>ATOM
      1 O3I          3.7400     1.4610    -1.2420 o          1 FIR      -0.536000
      2 O6I          1.4140    -2.4390    -0.8080 o          1 FIR      -0.480000
      3 N1I          1.7310     0.9720    -0.2220 ns         1 FIR      -0.523900
      4 C2I          2.8600     0.7020    -0.9100 c          1 FIR       0.619000
      5 N4           2.8310    -0.6660    -1.1820 ns         1 FIR      -0.485500
      6 O10         -1.6220     0.0630     1.4280 os         1 FIR      -0.306100
      7 C16         -2.8640     0.2290    -0.5430 ca         1 FIR      -0.112000
      8 C11         -1.6220     0.0900     0.0780 ca         1 FIR       0.146100
      9 C12         -0.4660    -0.0130    -0.6900 ca         1 FIR      -0.157300
     10 C13         -0.5610     0.0680    -2.0790 ca         1 FIR      -0.098000
     11 C14         -1.7940     0.2130    -2.6690 ca         1 FIR       0.141000
     12 C15         -2.9560     0.2860    -1.9190 ca         1 FIR      -0.102000
     13 C9          -0.3870     0.3020     2.0630 c6         1 FIR       0.086300
     14 C5           1.7110    -1.2750    -0.7180 c          1 FIR       0.571000
     15 F17         -1.8760     0.2870    -4.0080 f          1 FIR      -0.173000
     16 N21          0.1680     0.6600     4.3730 nt         1 FIR      -0.609000
     17 C19         -0.5700    -0.0700     3.5310 c          1 FIR       0.611100
     18 C7I          0.8830    -0.1820    -0.0280 c5         1 FIR       0.088700
     19 C8I          0.7050    -0.5550     1.4450 c6         1 FIR      -0.111400
     20 H1I          1.4540     1.9150     0.0010 hn         1 FIR       0.349500
     21 HN4          3.5760    -1.1410    -1.6730 hn         1 FIR       0.360500
     22 H16         -3.7560     0.3010     0.0650 ha         1 FIR       0.141000
     23 H13          0.3250     0.0150    -2.7020 ha         1 FIR       0.135000
     24 H15         -3.9170     0.3990    -2.4020 ha         1 FIR       0.139000
     25 H9          -0.1280     1.3660     1.9700 h1         1 FIR       0.048700
     26 H211         0.1740     0.4510     5.3590 hn         1 FIR       0.319500
     27 H212         0.7030     1.4550     4.0680 hn         1 FIR       0.319500
     28 H8I1         1.6470    -0.4180     1.9760 hc         1 FIR       0.089700
     29 H8I2         0.4220    -1.6070     1.5280 hc         1 FIR       0.089700
     30 O20         -1.2910    -0.9920     3.8630 o          1 FIR      -0.559100
@<TRIPOS>BOND
     1     1     4 2   
     2     2    14 2   
     3     3     4 1   
     4     3    18 1   
     5     3    20 1   
     6     4     5 1   
     7     5    14 1   
     8     5    21 1   
     9     6     8 1   
    10     6    13 1   
    11     7     8 ar  
    12     7    12 ar  
    13     7    22 1   
    14     8     9 ar  
    15     9    10 ar  
    16     9    18 1   
    17    10    11 ar  
    18    10    23 1   
    19    11    12 ar  
    20    11    15 1   
    21    12    24 1   
    22    13    17 1   
    23    13    19 1   
    24    13    25 1   
    25    14    18 1   
    26    16    17 1   
    27    16    26 1   
    28    16    27 1   
    29    17    30 2   
    30    18    19 1   
    31    19    28 1   
    32    19    29 1   
@<TRIPOS>SUBSTRUCTURE
     1 FIR         1 TEMP              0 ****  ****    0 ROOT
