@<TRIPOS>MOLECULE
FIS
   30    32     1     0     0
SMALL
No Charge or Current Charge


@<TRIPOS>ATOM
      1 O3I         -1.1230     3.7200    -1.6260 o          1 FIS      -0.536000
      2 O6I         -0.8670     1.6400     2.4110 o          1 FIS      -0.480000
      3 N1I         -0.2110     1.6730    -1.0870 ns         1 FIS      -0.523900
      4 C2I         -0.8370     2.8520    -0.8250 c          1 FIS       0.619000
      5 N4          -1.0840     2.8590     0.4870 ns         1 FIS      -0.485500
      6 F17         -4.1580    -1.8400    -0.0460 f          1 FIS      -0.173000
      7 C16         -0.6740    -2.9400    -0.2200 ca         1 FIS      -0.112000
      8 C11         -0.0050    -1.7070    -0.1360 ca         1 FIS       0.145100
      9 C12         -0.7330    -0.4990     0.0120 ca         1 FIS      -0.157300
     10 C13         -2.1470    -0.5640     0.0280 ca         1 FIS      -0.098000
     11 C14         -2.8080    -1.7990    -0.0680 ca         1 FIS       0.141000
     12 C15         -2.0780    -2.9890    -0.1860 ca         1 FIS      -0.102000
     13 O10          1.3710    -1.7170    -0.1930 os         1 FIS      -0.305100
     14 C5          -0.6960     1.7880     1.2100 c          1 FIS       0.571000
     15 O20          4.1780    -1.7610    -0.3600 o          1 FIS      -0.559100
     16 C19          3.6340    -0.6680    -0.3140 c          1 FIS       0.610100
     17 C7I         -0.0200     0.8550     0.1330 c5         1 FIS       0.088700
     18 C8I          1.4880     0.6640     0.4390 c6         1 FIS      -0.111400
     19 C9           2.0860    -0.4790    -0.4180 c6         1 FIS       0.085300
     20 H1I          0.0370     1.4330    -2.0390 hn         1 FIS       0.349500
     21 HN4         -1.5550     3.6380     0.9190 hn         1 FIS       0.360500
     22 H16         -0.1000    -3.8580    -0.3210 ha         1 FIS       0.141000
     23 H13         -2.7430     0.3410     0.1140 ha         1 FIS       0.135000
     24 H15         -2.5970    -3.9420    -0.2560 ha         1 FIS       0.139000
     25 H211         5.4010     0.3440    -0.1040 hn         1 FIS       0.319500
     26 H212         3.9750     1.3590    -0.1480 hn         1 FIS       0.319500
     27 H8I1         1.6220     0.4150     1.5010 hc         1 FIS       0.089200
     28 H8I2         2.0150     1.6130     0.2720 hc         1 FIS       0.089200
     29 H9           1.9230    -0.2040    -1.4690 h1         1 FIS       0.048700
     30 N21          4.3990     0.4440    -0.1710 nt         1 FIS      -0.609000
@<TRIPOS>BOND
     1     1     4 2   
     2     2    14 2   
     3     3     4 1   
     4     3    17 1   
     5     3    20 1   
     6     4     5 1   
     7     5    14 1   
     8     5    21 1   
     9     6    11 1   
    10     7     8 ar  
    11     7    12 ar  
    12     7    22 1   
    13     8     9 ar  
    14     8    13 1   
    15     9    10 ar  
    16     9    17 1   
    17    10    11 ar  
    18    10    23 1   
    19    11    12 ar  
    20    12    24 1   
    21    13    19 1   
    22    14    17 1   
    23    15    16 2   
    24    16    19 1   
    25    16    30 1   
    26    17    18 1   
    27    18    19 1   
    28    18    27 1   
    29    18    28 1   
    30    19    29 1   
    31    25    30 1   
    32    26    30 1   
@<TRIPOS>SUBSTRUCTURE
     1 FIS         1 TEMP              0 ****  ****    0 ROOT
