@<TRIPOS>MOLECULE
FIS
   30    32     1     0     0
SMALL
bcc


@<TRIPOS>ATOM
      1 O3I         -1.2100     3.7740    -1.4330 o          1 FIS      -0.611500
      2 O6I         -0.7870     1.4010     2.4390 o          1 FIS      -0.555500
      3 N1I         -0.2180     1.7440    -0.9720 ns         1 FIS      -0.590900
      4 C2I         -0.8860     2.8810    -0.6860 c          1 FIS       0.828500
      5 N4          -1.1490     2.8420     0.6840 ns         1 FIS      -0.619500
      6 F17         -4.0370    -1.8310    -0.2890 f          1 FIS      -0.137900
      7 C16         -0.5830    -2.8540    -0.2690 ca         1 FIS      -0.130000
      8 C11          0.0520    -1.6200    -0.1240 ca         1 FIS       0.145100
      9 C12         -0.7030    -0.4570    -0.0050 ca         1 FIS      -0.157300
     10 C13         -2.0940    -0.5370    -0.0750 ca         1 FIS      -0.116000
     11 C14         -2.6970    -1.7630    -0.2250 ca         1 FIS       0.105900
     12 C15         -1.9600    -2.9320    -0.3150 ca         1 FIS      -0.120000
     13 O10          1.4030    -1.6340    -0.1100 os         1 FIS      -0.281900
     14 C5          -0.6990     1.7090     1.2780 c          1 FIS       0.713500
     15 O20          3.8600    -1.3650     0.8910 o          1 FIS      -0.559100
     16 C19          3.5180    -0.6010     0.0070 c          1 FIS       0.677100
     17 C7I         -0.0260     0.8830     0.1720 c5         1 FIS       0.088700
     18 C8I          1.4480     0.6860     0.5330 c6         1 FIS      -0.111400
     19 C9           2.0460    -0.4020    -0.3430 c6         1 FIS       0.062100
     20 H1I         -0.0040     1.4740    -1.9190 hn         1 FIS       0.349500
     21 HN4         -1.6290     3.5880     1.1690 hn         1 FIS       0.360500
     22 H16          0.0160    -3.7520    -0.3550 ha         1 FIS       0.159000
     23 H13         -2.7070     0.3540    -0.0100 ha         1 FIS       0.153000
     24 H15         -2.4540    -3.8870    -0.4320 ha         1 FIS       0.157000
     25 H211         5.3390     0.1700    -0.4980 hn         1 FIS       0.319500
     26 H212         4.0350     0.7460    -1.4580 hn         1 FIS       0.319500
     27 H8I1         1.5350     0.3890     1.5810 hc         1 FIS       0.089200
     28 H8I2         1.9880     1.6240     0.4030 hc         1 FIS       0.089200
     29 H9           1.9450    -0.1300    -1.4030 h1         1 FIS       0.048700
     30 N21          4.3510     0.1700    -0.6970 nt         1 FIS      -0.676000
@<TRIPOS>BOND
     1     1     4 2   
     2     2    14 2   
     3     3     4 1   
     4     3    17 1   
     5     3    20 1   
     6     4     5 1   
     7     5    14 1   
     8     5    21 1   
     9     6    11 1   
    10     7     8 ar  
    11     7    12 ar  
    12     7    22 1   
    13     8     9 ar  
    14     8    13 1   
    15     9    10 ar  
    16     9    17 1   
    17    10    11 ar  
    18    10    23 1   
    19    11    12 ar  
    20    12    24 1   
    21    13    19 1   
    22    14    17 1   
    23    15    16 2   
    24    16    19 1   
    25    16    30 1   
    26    17    18 1   
    27    18    19 1   
    28    18    27 1   
    29    18    28 1   
    30    19    29 1   
    31    25    30 1   
    32    26    30 1   
@<TRIPOS>SUBSTRUCTURE
     1 FIS         1 TEMP              0 ****  ****    0 ROOT
