@<TRIPOS>MOLECULE
FIT
   63    66     1     0     0
SMALL
No Charge or Current Charge


@<TRIPOS>ATOM
      1 N1           5.5010    -0.3070     0.4990 ns         1 FIT      -0.498900
      2 C2           5.0410     2.0520     0.6960 ce         1 FIT      -0.279200
      3 N2          -4.4320     0.4760     0.5880 ns         1 FIT      -0.511900
      4 C4           4.0610    -0.5690     0.6050 c6         1 FIT       0.120700
      5 C5           3.6740    -2.0130     0.2190 c6         1 FIT      -0.082400
      6 C6           2.1790    -2.2560     0.5310 c6         1 FIT      -0.070400
      7 O1           7.2340     1.1120     0.8390 o          1 FIT      -0.560000
      8 O2          -4.2590    -0.5240    -1.4800 o          1 FIT      -0.608100
      9 C1           3.7380     1.8770     0.3570 c2         1 FIT      -0.166200
     10 C3           6.0370     0.9410     0.6880 c          1 FIT       0.556200
     11 C7           1.2620    -1.2060    -0.1620 c6         1 FIT      -0.047700
     12 C8           1.6990     0.2700     0.1910 c6         1 FIT      -0.044700
     13 C9           3.2230     0.5200    -0.1460 c6         1 FIT      -0.023800
     14 C10          0.7150     1.3170    -0.4490 c6         1 FIT      -0.068400
     15 C11         -0.7710     1.0420    -0.0760 c6         1 FIT      -0.066400
     16 C12         -1.2010    -0.4050    -0.4560 c5         1 FIT      -0.038000
     17 C13         -0.2280    -1.4070     0.2370 c5         1 FIT      -0.063700
     18 C14         -0.9060    -2.7770    -0.0560 c5         1 FIT      -0.071400
     19 C15         -2.4350    -2.4610     0.1040 c5         1 FIT      -0.065400
     20 C16         -2.5060    -0.8990     0.2630 c5         1 FIT      -0.146700
     21 C17         -1.2560    -0.5100    -2.0230 c3         1 FIT      -0.082100
     22 C18          3.5040     0.5020    -1.6900 c3         1 FIT      -0.078100
     23 C19         -3.8120    -0.3180    -0.3600 c          1 FIT       0.613100
     24 C20         -5.6760     1.2400     0.4340 c3         1 FIT       0.140400
     25 C21         -6.8660     0.2900     0.1500 c3         1 FIT      -0.103433
     26 C22         -5.9230     1.9740     1.7730 c3         1 FIT      -0.103433
     27 C23         -5.5310     2.2870    -0.6980 c3         1 FIT      -0.103433
     28 HN1          6.1470    -1.0860     0.4780 hn         1 FIT       0.316500
     29 H2           5.4260     3.0290     0.9820 ha         1 FIT       0.203000
     30 HN2         -3.9530     0.5490     1.4760 hn         1 FIT       0.306500
     31 H4           3.8310    -0.4640     1.6760 h1         1 FIT       0.040700
     32 H5           3.8820    -2.2050    -0.8420 hc         1 FIT       0.051200
     33 H5A          4.2840    -2.7270     0.7890 hc         1 FIT       0.051200
     34 H6           1.9040    -3.2690     0.2100 hc         1 FIT       0.045200
     35 H6A          2.0250    -2.2230     1.6190 hc         1 FIT       0.045200
     36 H1           3.0480     2.7200     0.3720 ha         1 FIT       0.182000
     37 H7           1.3490    -1.3630    -1.2440 hc         1 FIT       0.057700
     38 H8           1.5980     0.3830     1.2800 hc         1 FIT       0.046700
     39 H10          0.9610     2.3310    -0.1130 hc         1 FIT       0.043200
     40 H10A         0.8220     1.3320    -1.5410 hc         1 FIT       0.043200
     41 H11         -0.8980     1.1950     1.0050 hc         1 FIT       0.039700
     42 H11A        -1.4260     1.7770    -0.5640 hc         1 FIT       0.039700
     43 H13         -0.2280    -1.2450     1.3240 hc         1 FIT       0.041700
     44 H14         -0.6730    -3.1410    -1.0630 hc         1 FIT       0.045200
     45 H14A        -0.5770    -3.5540     0.6440 hc         1 FIT       0.045200
     46 H15         -2.9920    -2.8170    -0.7710 hc         1 FIT       0.057700
     47 H15A        -2.8690    -2.9670     0.9740 hc         1 FIT       0.057700
     48 H16         -2.4600    -0.6300     1.3270 hc         1 FIT       0.050700
     49 H17         -0.2700    -0.4210    -2.4880 hc         1 FIT       0.040367
     50 H17A        -1.6810    -1.4590    -2.3700 hc         1 FIT       0.040367
     51 H17B        -1.8750     0.2870    -2.4500 hc         1 FIT       0.040367
     52 H18          3.1590    -0.4160    -2.1760 hc         1 FIT       0.042367
     53 H18A         3.0160     1.3420    -2.1970 hc         1 FIT       0.042367
     54 H18B         4.5750     0.5920    -1.9050 hc         1 FIT       0.042367
     55 H21         -6.9420    -0.4830     0.9250 hc         1 FIT       0.043700
     56 H21A        -7.8110     0.8470     0.1330 hc         1 FIT       0.043700
     57 H21B        -6.7620    -0.2100    -0.8190 hc         1 FIT       0.043700
     58 H22         -5.0930     2.6520     2.0080 hc         1 FIT       0.043700
     59 H22A        -6.8430     2.5700     1.7290 hc         1 FIT       0.043700
     60 H22B        -6.0230     1.2600     2.5990 hc         1 FIT       0.043700
     61 H23         -5.4120     1.8110    -1.6770 hc         1 FIT       0.043700
     62 H23A        -6.4200     2.9280    -0.7500 hc         1 FIT       0.043700
     63 H23B        -4.6600     2.9310    -0.5250 hc         1 FIT       0.043700
@<TRIPOS>BOND
     1     1     4 1   
     2     1    10 1   
     3     1    28 1   
     4     2     9 2   
     5     2    10 1   
     6     2    29 1   
     7     3    23 1   
     8     3    24 1   
     9     3    30 1   
    10     4     5 1   
    11     4    13 1   
    12     4    31 1   
    13     5     6 1   
    14     5    32 1   
    15     5    33 1   
    16     6    11 1   
    17     6    34 1   
    18     6    35 1   
    19     7    10 2   
    20     8    23 2   
    21     9    13 1   
    22     9    36 1   
    23    11    12 1   
    24    11    17 1   
    25    11    37 1   
    26    12    13 1   
    27    12    14 1   
    28    12    38 1   
    29    13    22 1   
    30    14    15 1   
    31    14    39 1   
    32    14    40 1   
    33    15    16 1   
    34    15    41 1   
    35    15    42 1   
    36    16    17 1   
    37    16    20 1   
    38    16    21 1   
    39    17    18 1   
    40    17    43 1   
    41    18    19 1   
    42    18    44 1   
    43    18    45 1   
    44    19    20 1   
    45    19    46 1   
    46    19    47 1   
    47    20    23 1   
    48    20    48 1   
    49    21    49 1   
    50    21    50 1   
    51    21    51 1   
    52    22    52 1   
    53    22    53 1   
    54    22    54 1   
    55    24    25 1   
    56    24    26 1   
    57    24    27 1   
    58    25    55 1   
    59    25    56 1   
    60    25    57 1   
    61    26    58 1   
    62    26    59 1   
    63    26    60 1   
    64    27    61 1   
    65    27    62 1   
    66    27    63 1   
@<TRIPOS>SUBSTRUCTURE
     1 FIT         1 TEMP              0 ****  ****    0 ROOT
