@<TRIPOS>MOLECULE
FIT
   63    66     1     0     0
SMALL
abcg2


@<TRIPOS>ATOM
      1 N1           5.3360    -0.1720     0.3320 ns         1 FIT      -0.498900
      2 C2           4.7360     2.0470     0.9530 ce         1 FIT      -0.279200
      3 N2          -4.2200     0.4870     0.5360 ns         1 FIT      -0.511900
      4 C4           3.9440    -0.5410     0.5060 c6         1 FIT       0.120700
      5 C5           3.6440    -1.9080    -0.0760 c6         1 FIT      -0.082400
      6 C6           2.2030    -2.2820     0.2510 c6         1 FIT      -0.070400
      7 O1           6.9840     1.3190     0.7810 o          1 FIT      -0.560000
      8 O2          -4.4550    -1.0850    -1.0770 o          1 FIT      -0.608100
      9 C1           3.4690     1.8410     0.5950 c2         1 FIT      -0.166200
     10 C3           5.7920     1.0430     0.6980 c          1 FIT       0.556200
     11 C7           1.2060    -1.2260    -0.2210 c6         1 FIT      -0.047700
     12 C8           1.5740     0.1740     0.3160 c6         1 FIT      -0.044700
     13 C9           3.0270     0.5560    -0.0580 c6         1 FIT      -0.023800
     14 C10          0.5340     1.2250    -0.0900 c6         1 FIT      -0.068400
     15 C11         -0.8890     0.8330     0.3150 c6         1 FIT      -0.066400
     16 C12         -1.2590    -0.5370    -0.2440 c5         1 FIT      -0.038000
     17 C13         -0.2090    -1.5550     0.2240 c5         1 FIT      -0.063700
     18 C14         -0.8160    -2.9040    -0.1520 c5         1 FIT      -0.071400
     19 C15         -2.3340    -2.6970     0.0560 c5         1 FIT      -0.065400
     20 C16         -2.5230    -1.1980     0.3590 c5         1 FIT      -0.146700
     21 C17         -1.3770    -0.4690    -1.7710 c3         1 FIT      -0.082100
     22 C18          3.1970     0.7450    -1.5740 c3         1 FIT      -0.078100
     23 C19         -3.8310    -0.6110    -0.1360 c          1 FIT       0.613100
     24 C20         -5.3730     1.3450     0.2450 c3         1 FIT       0.140400
     25 C21         -6.6820     0.5630     0.3690 c3         1 FIT      -0.103433
     26 C22         -5.3530     2.4500     1.3000 c3         1 FIT      -0.103433
     27 C23         -5.2420     1.9720    -1.1440 c3         1 FIT      -0.103433
     28 HN1          6.0190    -0.9120     0.2400 hn         1 FIT       0.316500
     29 H2           5.0580     2.9900     1.3770 ha         1 FIT       0.203000
     30 HN2         -3.6350     0.7770     1.3030 hn         1 FIT       0.306500
     31 H4           3.7320    -0.5980     1.5860 h1         1 FIT       0.040700
     32 H5           3.8080    -1.9110    -1.1570 hc         1 FIT       0.051200
     33 H5A          4.3280    -2.6480     0.3490 hc         1 FIT       0.051200
     34 H6           1.9600    -3.2470    -0.2000 hc         1 FIT       0.045200
     35 H6A          2.1010    -2.4130     1.3350 hc         1 FIT       0.045200
     36 H1           2.7480     2.6410     0.7180 ha         1 FIT       0.182000
     37 H7           1.2360    -1.2090    -1.3170 hc         1 FIT       0.057700
     38 H8           1.5390     0.1010     1.4130 hc         1 FIT       0.046700
     39 H10          0.7700     2.1850     0.3760 hc         1 FIT       0.043200
     40 H10A         0.5740     1.4010    -1.1670 hc         1 FIT       0.043200
     41 H11         -0.9560     0.8050     1.4090 hc         1 FIT       0.039700
     42 H11A        -1.5910     1.6010    -0.0260 hc         1 FIT       0.039700
     43 H13         -0.2070    -1.5010     1.3250 hc         1 FIT       0.041700
     44 H14         -0.5910    -3.1490    -1.1940 hc         1 FIT       0.045200
     45 H14A        -0.4230    -3.7210     0.4530 hc         1 FIT       0.045200
     46 H15         -2.8970    -2.9840    -0.8320 hc         1 FIT       0.057700
     47 H15A        -2.7170    -3.3040     0.8770 hc         1 FIT       0.057700
     48 H16         -2.4680    -1.0490     1.4440 hc         1 FIT       0.050700
     49 H17         -0.4320    -0.1990    -2.2430 hc         1 FIT       0.040367
     50 H17A        -1.6950    -1.4130    -2.2120 hc         1 FIT       0.040367
     51 H17B        -2.1030     0.2920    -2.0660 hc         1 FIT       0.040367
     52 H18          2.8320    -0.1080    -2.1450 hc         1 FIT       0.042367
     53 H18A         2.6520     1.6250    -1.9170 hc         1 FIT       0.042367
     54 H18B         4.2450     0.8920    -1.8340 hc         1 FIT       0.042367
     55 H21         -6.7610     0.1000     1.3540 hc         1 FIT       0.043700
     56 H21A        -7.5310     1.2390     0.2510 hc         1 FIT       0.043700
     57 H21B        -6.7650    -0.2170    -0.3850 hc         1 FIT       0.043700
     58 H22         -4.4380     3.0430     1.2380 hc         1 FIT       0.043700
     59 H22A        -6.1970     3.1230     1.1540 hc         1 FIT       0.043700
     60 H22B        -5.4250     2.0360     2.3080 hc         1 FIT       0.043700
     61 H23         -5.2690     1.2190    -1.9300 hc         1 FIT       0.043700
     62 H23A        -6.0580     2.6750    -1.3190 hc         1 FIT       0.043700
     63 H23B        -4.3030     2.5230    -1.2270 hc         1 FIT       0.043700
@<TRIPOS>BOND
     1     1     4 1   
     2     1    10 1   
     3     1    28 1   
     4     2     9 2   
     5     2    10 1   
     6     2    29 1   
     7     3    23 1   
     8     3    24 1   
     9     3    30 1   
    10     4     5 1   
    11     4    13 1   
    12     4    31 1   
    13     5     6 1   
    14     5    32 1   
    15     5    33 1   
    16     6    11 1   
    17     6    34 1   
    18     6    35 1   
    19     7    10 2   
    20     8    23 2   
    21     9    13 1   
    22     9    36 1   
    23    11    12 1   
    24    11    17 1   
    25    11    37 1   
    26    12    13 1   
    27    12    14 1   
    28    12    38 1   
    29    13    22 1   
    30    14    15 1   
    31    14    39 1   
    32    14    40 1   
    33    15    16 1   
    34    15    41 1   
    35    15    42 1   
    36    16    17 1   
    37    16    20 1   
    38    16    21 1   
    39    17    18 1   
    40    17    43 1   
    41    18    19 1   
    42    18    44 1   
    43    18    45 1   
    44    19    20 1   
    45    19    46 1   
    46    19    47 1   
    47    20    23 1   
    48    20    48 1   
    49    21    49 1   
    50    21    50 1   
    51    21    51 1   
    52    22    52 1   
    53    22    53 1   
    54    22    54 1   
    55    24    25 1   
    56    24    26 1   
    57    24    27 1   
    58    25    55 1   
    59    25    56 1   
    60    25    57 1   
    61    26    58 1   
    62    26    59 1   
    63    26    60 1   
    64    27    61 1   
    65    27    62 1   
    66    27    63 1   
@<TRIPOS>SUBSTRUCTURE
     1 FIT         1 TEMP              0 ****  ****    0 ROOT
