@<TRIPOS>MOLECULE
FIV
   20    21     1     0     0
SMALL
No Charge or Current Charge


@<TRIPOS>ATOM
      1 O2          -3.1850    -1.4860     0.0620 o          1 FIV      -0.719000
      2 C11         -2.8880    -0.3000     0.0400 c          1 FIV       0.712600
      3 O1          -3.7260     0.5920     0.0260 o          1 FIV      -0.719000
      4 C7          -1.4170     0.0830     0.0320 ca         1 FIV      -0.130600
      5 C8          -1.0250     1.4430     0.0070 ca         1 FIV      -0.056000
      6 C3           0.3340     1.8000    -0.0010 ca         1 FIV      -0.157000
      7 C5          -0.4080    -0.9100     0.0480 ca         1 FIV      -0.094000
      8 C2           0.9550    -0.5550     0.0400 ca         1 FIV      -0.047000
      9 C6           1.9490    -1.5520     0.0560 ca         1 FIV      -0.090000
     10 C10          3.3080    -1.1930     0.0480 ca         1 FIV      -0.142000
     11 C9           3.6790     0.1620     0.0230 ca         1 FIV      -0.137000
     12 C4           2.6900     1.1610     0.0070 ca         1 FIV      -0.102000
     13 C1           1.3280     0.8060     0.0150 ca         1 FIV      -0.044000
     14 H2          -1.7760     2.2300    -0.0060 ha         1 FIV       0.129000
     15 H3           0.6120     2.8510    -0.0200 ha         1 FIV       0.089000
     16 H4          -0.6820    -1.9630     0.0670 ha         1 FIV       0.130000
     17 H5           1.6710    -2.6040     0.0750 ha         1 FIV       0.104000
     18 H6           4.0740    -1.9660     0.0610 ha         1 FIV       0.091000
     19 H7           4.7300     0.4390     0.0170 ha         1 FIV       0.089000
     20 H8           2.9830     2.2080    -0.0120 ha         1 FIV       0.094000
@<TRIPOS>BOND
     1     1     2 1   
     2     2     3 1   
     3     2     4 1   
     4     4     5 ar  
     5     4     7 ar  
     6     5     6 ar  
     7     5    14 1   
     8     6    13 ar  
     9     6    15 1   
    10     7     8 ar  
    11     7    16 1   
    12     8     9 ar  
    13     8    13 ar  
    14     9    10 ar  
    15     9    17 1   
    16    10    11 ar  
    17    10    18 1   
    18    11    12 ar  
    19    11    19 1   
    20    12    13 ar  
    21    12    20 1   
@<TRIPOS>SUBSTRUCTURE
     1 FIV         1 TEMP              0 ****  ****    0 ROOT
