@<TRIPOS>MOLECULE
FIV
   20    21     1     0     0
SMALL
abcg2


@<TRIPOS>ATOM
      1 O2          -3.1380    -1.5220     0.0860 o          1 FIV      -0.719000
      2 C11         -2.8730    -0.3060     0.0410 c          1 FIV       0.712600
      3 O1          -3.6900     0.6340    -0.0000 o          1 FIV      -0.719000
      4 C7          -1.3980     0.0760     0.0320 ca         1 FIV      -0.130600
      5 C8          -1.0090     1.4360     0.0090 ca         1 FIV      -0.056000
      6 C3           0.3100     1.7960     0.0020 ca         1 FIV      -0.157000
      7 C5          -0.4230    -0.8890     0.0460 ca         1 FIV      -0.094000
      8 C2           0.9510    -0.5550     0.0380 ca         1 FIV      -0.047000
      9 C6           1.9630    -1.5450     0.0530 ca         1 FIV      -0.090000
     10 C10          3.2850    -1.1930     0.0470 ca         1 FIV      -0.142000
     11 C9           3.6600     0.1680     0.0230 ca         1 FIV      -0.137000
     12 C4           2.7040     1.1470     0.0080 ca         1 FIV      -0.102000
     13 C1           1.3290     0.8130     0.0150 ca         1 FIV      -0.044000
     14 H2          -1.7740     2.2000    -0.0030 ha         1 FIV       0.129000
     15 H3           0.5910     2.8430    -0.0150 ha         1 FIV       0.089000
     16 H4          -0.7060    -1.9340     0.0650 ha         1 FIV       0.130000
     17 H5           1.6760    -2.5890     0.0700 ha         1 FIV       0.104000
     18 H6           4.0510    -1.9580     0.0610 ha         1 FIV       0.091000
     19 H7           4.7090     0.4320     0.0180 ha         1 FIV       0.089000
     20 H8           2.9910     2.1920    -0.0120 ha         1 FIV       0.094000
@<TRIPOS>BOND
     1     1     2 1   
     2     2     3 1   
     3     2     4 1   
     4     4     5 ar  
     5     4     7 ar  
     6     5     6 ar  
     7     5    14 1   
     8     6    13 ar  
     9     6    15 1   
    10     7     8 ar  
    11     7    16 1   
    12     8     9 ar  
    13     8    13 ar  
    14     9    10 ar  
    15     9    17 1   
    16    10    11 ar  
    17    10    18 1   
    18    11    12 ar  
    19    11    19 1   
    20    12    13 ar  
    21    12    20 1   
@<TRIPOS>SUBSTRUCTURE
     1 FIV         1 TEMP              0 ****  ****    0 ROOT
