@<TRIPOS>MOLECULE
FIX
   20    19     1     0     0
SMALL
No Charge or Current Charge


@<TRIPOS>ATOM
      1 O1A         -2.7160    -0.9890    -1.0460 o          1 FIX      -0.708500
      2 C1          -2.6890    -0.3620     0.0060 c          1 FIX       0.689000
      3 O1B         -3.5140    -0.4950     0.9000 o          1 FIX      -0.708500
      4 C2          -1.4740     0.5970     0.2900 c3         1 FIX      -0.011700
      5 O2          -1.4010     0.9470     1.7040 oh         1 FIX      -0.752000
      6 C3          -0.1090     0.0060    -0.1890 c3         1 FIX       0.148300
      7 O3          -0.2010    -0.3930    -1.5670 oh         1 FIX      -0.728000
      8 C4           1.0910     0.9920    -0.0460 c3         1 FIX       0.084300
      9 O4           0.9960     1.9800    -1.1060 oh         1 FIX      -0.701000
     10 C5           2.4460     0.2220    -0.0500 c          1 FIX       0.437100
     11 O5           3.2670     0.3090    -0.9670 o          1 FIX      -0.480100
     12 C6           2.7200    -0.6650     1.2250 c          1 FIX       0.473900
     13 O6           3.7230    -1.3660     1.3610 o          1 FIX      -0.489100
     14 H2          -1.6740     1.5050    -0.2960 h1         1 FIX       0.052700
     15 HO2         -2.2570     0.6180     2.0860 ho         1 FIX       0.531000
     16 H3           0.0870    -0.8810     0.4280 h1         1 FIX       0.025700
     17 HO3         -1.1240    -0.7710    -1.6530 ho         1 FIX       0.517000
     18 H4           1.0290     1.4800     0.9370 h1         1 FIX       0.094700
     19 HO4          0.6450     1.4580    -1.8710 ho         1 FIX       0.522000
     20 H6           1.9440    -0.6280     2.0210 h4         1 FIX       0.002200
@<TRIPOS>BOND
     1     1     2 1   
     2     2     3 1   
     3     2     4 1   
     4     4     5 1   
     5     4     6 1   
     6     4    14 1   
     7     5    15 1   
     8     6     7 1   
     9     6     8 1   
    10     6    16 1   
    11     7    17 1   
    12     8     9 1   
    13     8    10 1   
    14     8    18 1   
    15     9    19 1   
    16    10    11 2   
    17    10    12 1   
    18    12    13 2   
    19    12    20 1   
@<TRIPOS>SUBSTRUCTURE
     1 FIX         1 TEMP              0 ****  ****    0 ROOT
