@<TRIPOS>MOLECULE
FIX
   20    19     1     0     0
SMALL
bcc


@<TRIPOS>ATOM
      1 O1A         -2.5700    -1.1440    -0.9800 o          1 FIX      -0.813800
      2 C1          -2.6050    -0.4190     0.0420 c          1 FIX       0.899600
      3 O1B         -3.4290    -0.4670     0.9700 o          1 FIX      -0.813800
      4 C2          -1.4980     0.6480     0.1730 c3         1 FIX      -0.034900
      5 O2          -1.5710     1.2760     1.4190 oh         1 FIX      -0.629800
      6 C3          -0.1250    -0.0150    -0.0280 c3         1 FIX       0.125100
      7 O3          -0.0240    -0.5940    -1.3020 oh         1 FIX      -0.665800
      8 C4           1.0230     1.0000     0.0910 c3         1 FIX       0.061100
      9 O4           0.9090     2.0630    -0.8010 oh         1 FIX      -0.578800
     10 C5           2.3200     0.2490    -0.0920 c          1 FIX       0.437100
     11 O5           3.0660     0.4030    -1.0210 o          1 FIX      -0.480100
     12 C6           2.6810    -0.7690     1.0000 c          1 FIX       0.473900
     13 O6           3.6330    -1.4860     0.8730 o          1 FIX      -0.489100
     14 H2          -1.6410     1.3790    -0.6370 h1         1 FIX       0.052700
     15 HO2         -2.3240     0.8410     1.8530 ho         1 FIX       0.432000
     16 H3          -0.0030    -0.7660     0.7700 h1         1 FIX       0.025700
     17 HO3         -0.9230    -0.9550    -1.4800 ho         1 FIX       0.478000
     18 H4           1.0130     1.4120     1.1080 h1         1 FIX       0.094700
     19 HO4          0.8140     1.7020    -1.6900 ho         1 FIX       0.423000
     20 H6           2.0430    -0.7920     1.8980 h4         1 FIX       0.002200
@<TRIPOS>BOND
     1     1     2 1   
     2     2     3 1   
     3     2     4 1   
     4     4     5 1   
     5     4     6 1   
     6     4    14 1   
     7     5    15 1   
     8     6     7 1   
     9     6     8 1   
    10     6    16 1   
    11     7    17 1   
    12     8     9 1   
    13     8    10 1   
    14     8    18 1   
    15     9    19 1   
    16    10    11 2   
    17    10    12 1   
    18    12    13 2   
    19    12    20 1   
@<TRIPOS>SUBSTRUCTURE
     1 FIX         1 TEMP              0 ****  ****    0 ROOT
