@<TRIPOS>MOLECULE
FIZ
   56    60     1     0     0
SMALL
No Charge or Current Charge


@<TRIPOS>ATOM
      1 C27        -40.0970     6.4650    34.5310 c5         1 FIZ       0.158300
      2 C30        -40.8850     7.7900    34.5790 c3         1 FIZ      -0.103100
      3 C8         -34.9710    -1.2490    31.1950 cc         1 FIZ      -0.174000
      4 C1         -34.2450    -3.8680    32.8970 ca         1 FIZ       0.133000
      5 C11        -36.9180    -1.3830    32.3360 cd         1 FIZ      -0.280600
      6 C15        -38.6550     0.6200    32.7020 cc         1 FIZ       0.666800
      7 C17        -38.0180    -1.6670    33.2560 c          1 FIZ       0.611600
      8 C2         -35.5250    -3.4830    32.4140 ca         1 FIZ       0.012000
      9 C21        -39.5210     2.3280    34.2820 c6         1 FIZ       0.208300
     10 C22        -38.7460     3.6690    34.2430 c6         1 FIZ      -0.090900
     11 C23        -39.2510     4.6660    33.1390 c5         1 FIZ      -0.075000
     12 C24        -39.2430     3.8750    31.7920 c6         1 FIZ      -0.090900
     13 C25        -40.0130     2.5310    31.8500 c6         1 FIZ       0.208300
     14 C26        -40.5840     5.4460    33.4420 c5         1 FIZ       0.136500
     15 C29        -38.3470     5.9350    33.0600 c5         1 FIZ       0.155600
     16 C3         -36.5290    -4.4700    32.3070 ca         1 FIZ      -0.075000
     17 C4         -36.2880    -5.7990    32.6920 ca         1 FIZ      -0.103000
     18 C5         -35.0280    -6.1670    33.1830 ca         1 FIZ      -0.095000
     19 C6         -34.0090    -5.2070    33.2860 ca         1 FIZ       0.113000
     20 C7         -35.8130    -2.1190    31.9390 cc         1 FIZ      -0.026000
     21 C9         -35.5790    -0.0300    31.0420 cd         1 FIZ      -0.140000
     22 N10        -36.7780    -0.1650    31.7240 na         1 FIZ       0.338400
     23 N14        -37.6450     0.8730    31.9200 n2         1 FIZ      -0.639100
     24 N16        -38.9170    -0.5970    33.3520 n          1 FIZ      -0.359300
     25 N20        -39.5140     1.6650    32.9510 nh         1 FIZ      -0.732600
     26 N31        -41.7600     4.6410    33.8310 n8         1 FIZ      -0.994200
     27 O18        -38.1500    -2.7030    33.8930 o          1 FIZ      -0.507000
     28 O28        -38.7100     6.7270    34.2150 os         1 FIZ      -0.450000
     29 Cl2        -32.4390    -5.7120    33.9170 cl         1 FIZ      -0.180000
     30 H1         -40.1330     6.0060    35.5290 h1         1 FIZ       0.064700
     31 H2         -40.4690     8.4650    35.3360 hc         1 FIZ       0.042700
     32 H3         -40.8530     8.3050    33.6110 hc         1 FIZ       0.042700
     33 H4         -41.9360     7.6120    34.8320 hc         1 FIZ       0.042700
     34 H5         -34.0030    -1.5250    30.7880 ha         1 FIZ       0.146000
     35 H6         -40.4630    -1.8660    34.1170 h1         1 FIZ       0.055700
     36 H7         -39.9710    -0.5330    35.1980 h1         1 FIZ       0.055700
     37 H8         -40.9860    -0.2170    33.7590 h1         1 FIZ       0.055700
     38 H9         -40.5540     2.4950    34.6170 h1         1 FIZ       0.063700
     39 H10        -39.0510     1.6810    35.0360 h1         1 FIZ       0.063700
     40 H11        -37.6860     3.4450    34.0610 hc         1 FIZ       0.059200
     41 H12        -38.7820     4.1310    35.2370 hc         1 FIZ       0.059200
     42 H13        -38.2040     3.6710    31.5000 hc         1 FIZ       0.059200
     43 H14        -39.6620     4.4970    30.9890 hc         1 FIZ       0.059200
     44 H15        -41.0860     2.7230    31.9850 h1         1 FIZ       0.063700
     45 H16        -39.9110     2.0180    30.8820 h1         1 FIZ       0.063700
     46 H17        -40.8920     6.0030    32.5450 h1         1 FIZ       0.027700
     47 H18        -37.2740     5.7030    33.0870 h1         1 FIZ       0.049200
     48 H19        -38.5510     6.5220    32.1530 h1         1 FIZ       0.049200
     49 H20        -37.5010    -4.2120    31.8930 ha         1 FIZ       0.124000
     50 H21        -37.0750    -6.5440    32.6000 ha         1 FIZ       0.121000
     51 H22        -34.8380    -7.1950    33.4820 ha         1 FIZ       0.130000
     52 H23        -35.2730     0.8800    30.5420 h4         1 FIZ       0.163000
     53 H24        -42.5520     5.2670    34.0140 hn         1 FIZ       0.399000
     54 H25        -42.0730     4.0910    33.0260 hn         1 FIZ       0.399000
     55 C19        -40.1540    -0.8140    34.1530 c3         1 FIZ       0.086300
     56 Cl1        -32.9480    -2.6810    33.1160 cl         1 FIZ      -0.171000
@<TRIPOS>BOND
     1     1     2 1   
     2     1    14 1   
     3     1    28 1   
     4     1    30 1   
     5     2    31 1   
     6     2    32 1   
     7     2    33 1   
     8     3    20 1   
     9     3    21 2   
    10     3    34 1   
    11     4     8 ar  
    12     4    19 ar  
    13     4    56 1   
    14     5     7 1   
    15     5    20 2   
    16     5    22 1   
    17     6    23 2   
    18     6    24 1   
    19     6    25 1   
    20     7    24 1   
    21     7    27 2   
    22     8    16 ar  
    23     8    20 1   
    24     9    10 1   
    25     9    25 1   
    26     9    38 1   
    27     9    39 1   
    28    10    11 1   
    29    10    40 1   
    30    10    41 1   
    31    11    12 1   
    32    11    14 1   
    33    11    15 1   
    34    12    13 1   
    35    12    42 1   
    36    12    43 1   
    37    13    25 1   
    38    13    44 1   
    39    13    45 1   
    40    14    26 1   
    41    14    46 1   
    42    15    28 1   
    43    15    47 1   
    44    15    48 1   
    45    16    17 ar  
    46    16    49 1   
    47    17    18 ar  
    48    17    50 1   
    49    18    19 ar  
    50    18    51 1   
    51    19    29 1   
    52    21    22 1   
    53    21    52 1   
    54    22    23 1   
    55    24    55 1   
    56    26    53 1   
    57    26    54 1   
    58    35    55 1   
    59    36    55 1   
    60    37    55 1   
@<TRIPOS>SUBSTRUCTURE
     1 FIZ         1 TEMP              0 ****  ****    0 ROOT
