@<TRIPOS>MOLECULE
FIZ
   56    60     1     0     0
SMALL
abcg2


@<TRIPOS>ATOM
      1 C27        -39.9350     6.4340    34.4980 c5         1 FIZ       0.158300
      2 C30        -40.5150     7.8280    34.3600 c3         1 FIZ      -0.103100
      3 C8         -35.2890    -1.2920    30.9300 cc         1 FIZ      -0.174000
      4 C1         -34.2150    -3.6090    32.9900 ca         1 FIZ       0.133000
      5 C11        -36.9630    -1.2850    32.4150 cd         1 FIZ      -0.280600
      6 C15        -38.8430     0.6560    32.6890 cc         1 FIZ       0.666800
      7 C17        -37.9700    -1.4850    33.4220 c          1 FIZ       0.611600
      8 C2         -35.4710    -3.3650    32.4320 ca         1 FIZ       0.012000
      9 C21        -39.9950     2.2090    34.1780 c6         1 FIZ       0.208300
     10 C22        -39.1140     3.4400    34.3720 c6         1 FIZ      -0.090900
     11 C23        -39.2460     4.4930    33.2620 c5         1 FIZ      -0.075000
     12 C24        -39.1680     3.8080    31.8960 c6         1 FIZ      -0.090900
     13 C25        -40.0390     2.5640    31.7840 c6         1 FIZ       0.208300
     14 C26        -40.4510     5.4390    33.4500 c5         1 FIZ       0.136500
     15 C29        -38.1290     5.5320    33.3690 c5         1 FIZ       0.155600
     16 C3         -36.3420    -4.4420    32.2760 ca         1 FIZ      -0.075000
     17 C4         -35.9780    -5.7210    32.6590 ca         1 FIZ      -0.103000
     18 C5         -34.7280    -5.9550    33.2100 ca         1 FIZ      -0.095000
     19 C6         -33.8500    -4.8970    33.3750 ca         1 FIZ       0.113000
     20 C7         -35.8750    -2.0280    31.9770 cc         1 FIZ      -0.026000
     21 C9         -36.0210    -0.1360    30.7550 cd         1 FIZ      -0.140000
     22 N10        -37.0270    -0.1500    31.6520 na         1 FIZ       0.338400
     23 N14        -37.8960     0.8660    31.8370 n2         1 FIZ      -0.639100
     24 N16        -38.9620    -0.5080    33.4310 n          1 FIZ      -0.359300
     25 N20        -39.8170     1.6030    32.8560 nh         1 FIZ      -0.732600
     26 N31        -41.6920     4.8340    33.8950 n8         1 FIZ      -0.994200
     27 O18        -38.0140    -2.4340    34.1800 o          1 FIZ      -0.507000
     28 O28        -38.5210     6.4640    34.3540 os         1 FIZ      -0.450000
     29 CL2        -32.3020    -5.1950    34.0730 cl         1 FIZ      -0.180000
     30 H1         -40.1800     6.0430    35.4960 h1         1 FIZ       0.064700
     31 H2         -40.1050     8.5040    35.1120 hc         1 FIZ       0.042700
     32 H3         -40.3080     8.2420    33.3720 hc         1 FIZ       0.042700
     33 H4         -41.5970     7.8080    34.4980 hc         1 FIZ       0.042700
     34 H5         -34.4290    -1.5850    30.3490 ha         1 FIZ       0.146000
     35 H6         -40.4260    -1.8820    34.0010 h1         1 FIZ       0.055700
     36 H7         -40.0620    -0.6760    35.2380 h1         1 FIZ       0.055700
     37 H8         -40.9960    -0.2260    33.8010 h1         1 FIZ       0.055700
     38 H9         -41.0470     2.4690    34.2900 h1         1 FIZ       0.063700
     39 H10        -39.7620     1.4870    34.9590 h1         1 FIZ       0.063700
     40 H11        -38.0710     3.1110    34.4140 hc         1 FIZ       0.059200
     41 H12        -39.3420     3.8660    35.3520 hc         1 FIZ       0.059200
     42 H13        -38.1310     3.5230    31.7000 hc         1 FIZ       0.059200
     43 H14        -39.4510     4.5160    31.1110 hc         1 FIZ       0.059200
     44 H15        -41.0980     2.8350    31.8230 h1         1 FIZ       0.063700
     45 H16        -39.8820     2.0730    30.8250 h1         1 FIZ       0.063700
     46 H17        -40.5720     5.9850    32.4980 h1         1 FIZ       0.027700
     47 H18        -37.1720     5.0840    33.6500 h1         1 FIZ       0.049200
     48 H19        -37.9870     6.0300    32.3980 h1         1 FIZ       0.049200
     49 H20        -37.3130    -4.2680    31.8340 ha         1 FIZ       0.124000
     50 H21        -36.6660    -6.5450    32.5240 ha         1 FIZ       0.121000
     51 H22        -34.4330    -6.9510    33.5090 ha         1 FIZ       0.130000
     52 H23        -35.8970     0.6860    30.0690 h4         1 FIZ       0.163000
     53 H24        -42.3550     5.5650    34.1270 hn         1 FIZ       0.399000
     54 H25        -42.1210     4.3250    33.1330 hn         1 FIZ       0.399000
     55 C19        -40.1790    -0.8370    34.1680 c3         1 FIZ       0.086300
     56 CL1        -33.1110    -2.3080    33.2300 cl         1 FIZ      -0.171000
@<TRIPOS>BOND
     1     1     2 1   
     2     1    14 1   
     3     1    28 1   
     4     1    30 1   
     5     2    31 1   
     6     2    32 1   
     7     2    33 1   
     8     3    20 1   
     9     3    21 2   
    10     3    34 1   
    11     4     8 ar  
    12     4    19 ar  
    13     4    56 1   
    14     5     7 1   
    15     5    20 2   
    16     5    22 1   
    17     6    23 2   
    18     6    24 1   
    19     6    25 1   
    20     7    24 1   
    21     7    27 2   
    22     8    16 ar  
    23     8    20 1   
    24     9    10 1   
    25     9    25 1   
    26     9    38 1   
    27     9    39 1   
    28    10    11 1   
    29    10    40 1   
    30    10    41 1   
    31    11    12 1   
    32    11    14 1   
    33    11    15 1   
    34    12    13 1   
    35    12    42 1   
    36    12    43 1   
    37    13    25 1   
    38    13    44 1   
    39    13    45 1   
    40    14    26 1   
    41    14    46 1   
    42    15    28 1   
    43    15    47 1   
    44    15    48 1   
    45    16    17 ar  
    46    16    49 1   
    47    17    18 ar  
    48    17    50 1   
    49    18    19 ar  
    50    18    51 1   
    51    19    29 1   
    52    21    22 1   
    53    21    52 1   
    54    22    23 1   
    55    24    55 1   
    56    26    53 1   
    57    26    54 1   
    58    35    55 1   
    59    36    55 1   
    60    37    55 1   
@<TRIPOS>SUBSTRUCTURE
     1 FIZ         1 TEMP              0 ****  ****    0 ROOT
