@<TRIPOS>MOLECULE
FJ0
   61    66     1     0     0
SMALL
bcc


@<TRIPOS>ATOM
      1 C15         31.3110     6.4470    -9.2690 cc         1 FJ0       0.161500
      2 C17         31.8090     5.7480   -10.3150 cd         1 FJ0       0.229300
      3 C18         32.7420     9.0200   -11.2410 ca         1 FJ0      -0.093500
      4 C19         33.4580     8.9460   -12.4290 ca         1 FJ0      -0.223300
      5 C22         32.5130    10.2720   -10.6780 ca         1 FJ0      -0.208300
      6 C21         33.0020    11.4050   -11.3150 ca         1 FJ0       0.418600
      7 C20         33.9070    10.1330   -12.9860 ca         1 FJ0       0.407200
      8 C10         28.4520     9.3870    -7.5150 c5         1 FJ0       0.196800
      9 C9          26.4850     5.6320    -0.1490 c6         1 FJ0       0.193800
     10 O2          27.5150    11.8770    -6.2710 oh         1 FJ0      -0.594800
     11 C8          26.9440     5.1250     1.2060 c6         1 FJ0       0.114400
     12 C7          27.6120     3.0830     0.3190 c6         1 FJ0       0.114400
     13 C1          28.2010     7.0260    -3.7030 ca         1 FJ0       0.573300
     14 C2          29.0210     8.0440    -5.5380 ca         1 FJ0       0.602200
     15 C3          29.5160     6.8190    -6.0460 ca         1 FJ0      -0.058700
     16 O3          30.2520     4.7580    -8.0130 o          1 FJ0      -0.593100
     17 C4          29.2910     5.6280    -5.3480 ca         1 FJ0      -0.072000
     18 O4          32.3910     6.6330   -11.1430 os         1 FJ0      -0.333800
     19 C5          27.6470     5.5890    -2.2650 cc         1 FJ0       0.790500
     20 C6          27.1890     3.4810    -1.0850 c6         1 FJ0       0.193800
     21 C14         30.5620     5.9350    -8.1060 c          1 FJ0       0.614600
     22 C16         32.2240     7.8360   -10.5720 cd         1 FJ0       0.544900
     23 N6          33.6910    11.3280   -12.4540 nb         1 FJ0      -0.661000
     24 N5          31.5880     7.7790    -9.4540 nc         1 FJ0      -0.671000
     25 N4          30.2730     6.9000    -7.2130 ns         1 FJ0      -0.445100
     26 N3          29.2460     9.1950    -6.2970 nh         1 FJ0      -0.782300
     27 C13         29.4180    10.4810    -5.6160 c5         1 FJ0       0.159800
     28 C12         28.8510    11.5310    -6.5790 c5         1 FJ0       0.128100
     29 C11         28.8340    10.8010    -7.9140 c5         1 FJ0      -0.082400
     30 N           28.3900     8.1440    -4.3740 nb         1 FJ0      -0.657000
     31 C           28.6130     5.7840    -4.1710 ca         1 FJ0      -0.106200
     32 O           28.2450     4.8610    -3.2400 os         1 FJ0      -0.298700
     33 N1          27.5840     6.8720    -2.4860 nd         1 FJ0      -0.728700
     34 N2          27.2120     4.9310    -1.1950 nh         1 FJ0      -0.744600
     35 O1          26.8290     3.7230     1.3000 os         1 FJ0      -0.396600
     36 H1          31.8290     4.7070   -10.5910 h4         1 FJ0       0.086100
     37 H2          33.6700     8.0070   -12.9200 ha         1 FJ0       0.155000
     38 H3          33.7290    13.2390   -10.4840 hc         1 FJ0       0.054367
     39 H4          32.2940    13.4180   -11.4800 hc         1 FJ0       0.054367
     40 H5          32.1590    12.7430    -9.8530 hc         1 FJ0       0.054367
     41 H6          31.9560    10.3620    -9.7560 ha         1 FJ0       0.160000
     42 H7          34.4700    10.1110   -13.9120 h4         1 FJ0       0.025100
     43 H9          28.7050     8.6550    -8.2840 h1         1 FJ0       0.053700
     44 H10         26.6720     6.7000    -0.2250 h1         1 FJ0       0.069450
     45 H11         25.4100     5.4650    -0.2750 h1         1 FJ0       0.069450
     46 H12         27.4940    12.2460    -5.3830 ho         1 FJ0       0.407000
     47 H13         27.9830     5.4400     1.3790 h1         1 FJ0       0.058200
     48 H14         26.3230     5.5610     1.9890 h1         1 FJ0       0.058200
     49 H15         27.4850     2.0070     0.4450 h1         1 FJ0       0.058200
     50 H16         28.6750     3.3200     0.4570 h1         1 FJ0       0.058200
     51 H17         29.6520     4.6730    -5.6950 ha         1 FJ0       0.182000
     52 H18         26.1800     3.1130    -1.2970 h1         1 FJ0       0.069450
     53 H19         27.8690     3.0250    -1.8010 h1         1 FJ0       0.069450
     54 H20         30.5960     7.8380    -7.4270 hn         1 FJ0       0.366500
     55 H21         30.4800    10.6580    -5.4250 h1         1 FJ0       0.061700
     56 H22         28.9010    10.5160    -4.6540 h1         1 FJ0       0.061700
     57 H23         29.4880    12.4220    -6.6010 h1         1 FJ0       0.042700
     58 H24         29.8370    10.8040    -8.3480 hc         1 FJ0       0.061700
     59 H25         28.1520    11.2510    -8.6360 hc         1 FJ0       0.061700
     60 C23         32.7790    12.7720   -10.7470 c3         1 FJ0      -0.145400
     61 H8          27.3760     9.3040    -7.3220 h1         1 FJ0       0.053700
@<TRIPOS>BOND
     1     1     2 2   
     2     1    21 1   
     3     1    24 1   
     4     2    18 1   
     5     2    36 1   
     6     3     4 ar  
     7     3     5 ar  
     8     3    22 1   
     9     4     7 ar  
    10     4    37 1   
    11     5     6 ar  
    12     5    41 1   
    13     6    23 ar  
    14     6    60 1   
    15     7    23 ar  
    16     7    42 1   
    17     8    26 1   
    18     8    29 1   
    19     8    43 1   
    20     8    61 1   
    21     9    11 1   
    22     9    34 1   
    23     9    44 1   
    24     9    45 1   
    25    10    28 1   
    26    10    46 1   
    27    11    35 1   
    28    11    47 1   
    29    11    48 1   
    30    12    20 1   
    31    12    35 1   
    32    12    49 1   
    33    12    50 1   
    34    13    30 ar  
    35    13    31 ar  
    36    13    33 1   
    37    14    15 ar  
    38    14    26 1   
    39    14    30 ar  
    40    15    17 ar  
    41    15    25 1   
    42    16    21 2   
    43    17    31 ar  
    44    17    51 1   
    45    18    22 1   
    46    19    32 1   
    47    19    33 2   
    48    19    34 1   
    49    20    34 1   
    50    20    52 1   
    51    20    53 1   
    52    21    25 1   
    53    22    24 2   
    54    25    54 1   
    55    26    27 1   
    56    27    28 1   
    57    27    55 1   
    58    27    56 1   
    59    28    29 1   
    60    28    57 1   
    61    29    58 1   
    62    29    59 1   
    63    31    32 1   
    64    38    60 1   
    65    39    60 1   
    66    40    60 1   
@<TRIPOS>SUBSTRUCTURE
     1 FJ0         1 TEMP              0 ****  ****    0 ROOT
