@<TRIPOS>MOLECULE
FJ0
   61    66     1     0     0
SMALL
No Charge or Current Charge


@<TRIPOS>ATOM
      1 C15         31.6060     6.5430    -9.1400 cc         1 FJ0       0.161500
      2 C17         32.2570     5.7990   -10.0800 cd         1 FJ0       0.184900
      3 C18         32.6800     9.0190   -11.4630 ca         1 FJ0      -0.093500
      4 C19         33.4180     8.9030   -12.6610 ca         1 FJ0      -0.140000
      5 C22         32.2750    10.3170   -11.0860 ca         1 FJ0      -0.125000
      6 C21         32.6100    11.4180   -11.8960 ca         1 FJ0       0.353300
      7 C20         33.7120    10.0550   -13.4100 ca         1 FJ0       0.341900
      8 C10         28.6700     9.6230    -7.3660 c5         1 FJ0       0.196800
      9 C9          26.2800     5.5070    -0.1230 c6         1 FJ0       0.193800
     10 O2          27.8810    12.1780    -6.0480 oh         1 FJ0      -0.657000
     11 C8          26.3650     4.8600     1.2900 c6         1 FJ0       0.137600
     12 C7          27.2170     2.7950     0.3950 c6         1 FJ0       0.137600
     13 C1          28.2360     7.0060    -3.5640 ca         1 FJ0       0.508000
     14 C2          29.0960     8.0840    -5.3880 ca         1 FJ0       0.536900
     15 C3          29.6200     6.8730    -5.9320 ca         1 FJ0      -0.086000
     16 O3          30.9300     4.7480    -7.6880 o          1 FJ0      -0.593100
     17 C4          29.4030     5.6730    -5.2160 ca         1 FJ0      -0.054000
     18 O4          32.7480     6.6050   -11.0610 os         1 FJ0      -0.245000
     19 C5          27.6970     5.5170    -2.1920 cc         1 FJ0       0.790500
     20 C6          27.1760     3.3390    -1.0630 c6         1 FJ0       0.193800
     21 C14         30.9510     5.9510    -7.9390 c          1 FJ0       0.547600
     22 C16         32.3430     7.8430   -10.6360 cd         1 FJ0       0.500500
     23 N6          33.3190    11.2960   -13.0400 nb         1 FJ0      -0.661000
     24 N5          31.6590     7.8720    -9.4990 nc         1 FJ0      -0.671000
     25 N4          30.3650     6.9260    -7.1460 ns         1 FJ0      -0.119000
     26 N3          29.2600     9.3220    -6.0380 nh         1 FJ0      -0.782300
     27 C13         29.6780    10.5710    -5.3320 c5         1 FJ0       0.159800
     28 C12         29.2160    11.7140    -6.3030 c5         1 FJ0       0.151300
     29 C11         29.3170    10.9960    -7.6750 c5         1 FJ0      -0.082400
     30 N           28.4250     8.1550    -4.2200 nb         1 FJ0      -0.657000
     31 C           28.6920     5.7960    -4.0200 ca         1 FJ0      -0.040900
     32 O           28.3690     4.7990    -3.1670 os         1 FJ0      -0.298700
     33 N1          27.5850     6.8340    -2.3710 nd         1 FJ0      -0.728700
     34 N2          27.1910     4.8380    -1.1090 nh         1 FJ0      -0.744600
     35 O1          26.2010     3.4250     1.2090 os         1 FJ0      -0.443000
     36 H1          32.4310     4.7330   -10.1580 h4         1 FJ0       0.086100
     37 H2          33.7650     7.9370   -13.0190 ha         1 FJ0       0.137000
     38 H3          32.9910    13.3280   -10.9560 hc         1 FJ0       0.054367
     39 H4          31.9670    13.4310   -12.3990 hc         1 FJ0       0.054367
     40 H5          31.2970    12.8160   -10.8830 hc         1 FJ0       0.054367
     41 H6          31.7070    10.4770   -10.1740 ha         1 FJ0       0.142000
     42 H7          34.2810     9.9830   -14.3360 h4         1 FJ0       0.025100
     43 H9          28.9210     8.8810    -8.1360 h1         1 FJ0       0.053700
     44 H10         26.5210     6.5750    -0.0200 h1         1 FJ0       0.069450
     45 H11         25.2410     5.4480    -0.4770 h1         1 FJ0       0.069450
     46 H12         27.8400    12.4240    -5.0980 ho         1 FJ0       0.446000
     47 H13         27.3400     5.0870     1.7450 h1         1 FJ0       0.058200
     48 H14         25.5820     5.2770     1.9380 h1         1 FJ0       0.058200
     49 H15         27.0550     1.7080     0.3920 h1         1 FJ0       0.058200
     50 H16         28.2050     2.9900     0.8370 h1         1 FJ0       0.058200
     51 H17         29.7650     4.7030    -5.5430 ha         1 FJ0       0.164000
     52 H18         26.2680     2.9610    -1.5550 h1         1 FJ0       0.069450
     53 H19         28.0330     2.9160    -1.6060 h1         1 FJ0       0.069450
     54 H20         30.4960     7.8670    -7.5020 hn         1 FJ0       0.200000
     55 H21         30.7690    10.5920    -5.1990 h1         1 FJ0       0.061700
     56 H22         29.2160    10.6790    -4.3410 h1         1 FJ0       0.061700
     57 H23         29.9110    12.5640    -6.2540 h1         1 FJ0       0.042700
     58 H24         30.3630    10.8780    -7.9810 hc         1 FJ0       0.061700
     59 H25         28.8000    11.5330    -8.4770 hc         1 FJ0       0.061700
     60 C23         32.1930    12.8250   -11.5140 c3         1 FJ0      -0.145400
     61 H8          27.5750     9.6990    -7.3040 h1         1 FJ0       0.053700
@<TRIPOS>BOND
     1     1     2 2   
     2     1    21 1   
     3     1    24 1   
     4     2    18 1   
     5     2    36 1   
     6     3     4 ar  
     7     3     5 ar  
     8     3    22 1   
     9     4     7 ar  
    10     4    37 1   
    11     5     6 ar  
    12     5    41 1   
    13     6    23 ar  
    14     6    60 1   
    15     7    23 ar  
    16     7    42 1   
    17     8    26 1   
    18     8    29 1   
    19     8    43 1   
    20     8    61 1   
    21     9    11 1   
    22     9    34 1   
    23     9    44 1   
    24     9    45 1   
    25    10    28 1   
    26    10    46 1   
    27    11    35 1   
    28    11    47 1   
    29    11    48 1   
    30    12    20 1   
    31    12    35 1   
    32    12    49 1   
    33    12    50 1   
    34    13    30 ar  
    35    13    31 ar  
    36    13    33 1   
    37    14    15 ar  
    38    14    26 1   
    39    14    30 ar  
    40    15    17 ar  
    41    15    25 1   
    42    16    21 2   
    43    17    31 ar  
    44    17    51 1   
    45    18    22 1   
    46    19    32 1   
    47    19    33 2   
    48    19    34 1   
    49    20    34 1   
    50    20    52 1   
    51    20    53 1   
    52    21    25 1   
    53    22    24 2   
    54    25    54 1   
    55    26    27 1   
    56    27    28 1   
    57    27    55 1   
    58    27    56 1   
    59    28    29 1   
    60    28    57 1   
    61    29    58 1   
    62    29    59 1   
    63    31    32 1   
    64    38    60 1   
    65    39    60 1   
    66    40    60 1   
@<TRIPOS>SUBSTRUCTURE
     1 FJ0         1 TEMP              0 ****  ****    0 ROOT
