@<TRIPOS>MOLECULE
FJ1
   27    28     1     0     0
SMALL
No Charge or Current Charge


@<TRIPOS>ATOM
      1 C01         -2.0330     1.2900    -0.6030 c6         1 FJ1      -0.174400
      2 C02         -2.8820     0.1840     0.1030 c6         1 FJ1      -0.031000
      3 C03         -2.3580    -1.2280    -0.3180 c6         1 FJ1      -0.017100
      4 C04         -0.5140     1.1740    -0.3690 c          1 FJ1       0.617700
      5 C05         -0.0210    -0.2150    -0.2360 cc         1 FJ1      -0.261600
      6 C06         -0.8510    -1.2910    -0.2230 cd         1 FJ1      -0.089300
      7 N07         -0.0120    -2.3940    -0.0610 na         1 FJ1       0.016800
      8 N08          1.3300    -2.0240     0.0320 nd         1 FJ1      -0.467800
      9 C09          1.2980    -0.7020    -0.0730 cc         1 FJ1       0.194300
     10 C10         -4.3790     0.3320    -0.2980 c3         1 FJ1      -0.089600
     11 C11         -2.8030     0.3560     1.6520 c3         1 FJ1      -0.089600
     12 O12          0.1880     2.1720    -0.2840 o          1 FJ1      -0.506100
     13 C13          2.5510     0.1720    -0.0230 c3         1 FJ1       0.296700
     14 F14          2.5320     1.0190     1.0320 f          1 FJ1      -0.101000
     15 F15          3.6830    -0.5630     0.0920 f          1 FJ1      -0.101000
     16 F16          2.6890     0.9190    -1.1430 f          1 FJ1      -0.101000
     17 H1          -2.1660     1.1440    -1.6830 hc         1 FJ1       0.073200
     18 H2          -2.3680     2.3100    -0.3710 hc         1 FJ1       0.073200
     19 H3          -2.8210    -2.0080     0.3020 hc         1 FJ1       0.063700
     20 H4          -2.6600    -1.4440    -1.3520 hc         1 FJ1       0.063700
     21 H5          -0.3020    -3.3700    -0.0060 hn         1 FJ1       0.381000
     22 H6          -4.5160     0.2340    -1.3820 hc         1 FJ1       0.041533
     23 H7          -5.0010    -0.4340     0.1810 hc         1 FJ1       0.041533
     24 H8          -4.7780     1.3120    -0.0060 hc         1 FJ1       0.041533
     25 H9          -3.1580     1.3460     1.9630 hc         1 FJ1       0.041533
     26 H10         -3.4170    -0.3910     2.1700 hc         1 FJ1       0.041533
     27 H11         -1.7770     0.2470     2.0250 hc         1 FJ1       0.041533
@<TRIPOS>BOND
     1     1     2 1   
     2     1     4 1   
     3     1    17 1   
     4     1    18 1   
     5     2     3 1   
     6     2    10 1   
     7     2    11 1   
     8     3     6 1   
     9     3    19 1   
    10     3    20 1   
    11     4     5 1   
    12     4    12 2   
    13     5     6 2   
    14     5     9 1   
    15     6     7 1   
    16     7     8 1   
    17     7    21 1   
    18     8     9 2   
    19     9    13 1   
    20    10    22 1   
    21    10    23 1   
    22    10    24 1   
    23    11    25 1   
    24    11    26 1   
    25    11    27 1   
    26    13    14 1   
    27    13    15 1   
    28    13    16 1   
@<TRIPOS>SUBSTRUCTURE
     1 FJ1         1 TEMP              0 ****  ****    0 ROOT
