@<TRIPOS>MOLECULE
FJ1
   27    28     1     0     0
SMALL
abcg2


@<TRIPOS>ATOM
      1 C01         -2.0680     1.2780    -0.5910 c6         1 FJ1      -0.174400
      2 C02         -2.8740     0.1720     0.1140 c6         1 FJ1      -0.031000
      3 C03         -2.3340    -1.2070    -0.3120 c6         1 FJ1      -0.017100
      4 C04         -0.5720     1.2350    -0.3630 c          1 FJ1       0.617700
      5 C05         -0.0350    -0.1080    -0.2220 cc         1 FJ1      -0.261600
      6 C06         -0.8570    -1.2190    -0.1920 cd         1 FJ1      -0.089300
      7 N07         -0.0510    -2.2710    -0.0350 na         1 FJ1       0.016800
      8 N08          1.2380    -1.9430     0.0400 nd         1 FJ1      -0.467800
      9 C09          1.2650    -0.6380    -0.0690 cc         1 FJ1       0.194300
     10 C10         -4.3370     0.2830    -0.3070 c3         1 FJ1      -0.089600
     11 C11         -2.7750     0.3360     1.6320 c3         1 FJ1      -0.089600
     12 O12          0.1180     2.2340    -0.3360 o          1 FJ1      -0.506100
     13 C13          2.5590     0.0950    -0.0270 c3         1 FJ1       0.296700
     14 F14          2.6070     0.9540     0.9970 f          1 FJ1      -0.101000
     15 F15          3.5900    -0.7420     0.1080 f          1 FJ1      -0.101000
     16 F16          2.7600     0.8010    -1.1440 f          1 FJ1      -0.101000
     17 H1          -2.2160     1.1960    -1.6760 hc         1 FJ1       0.073200
     18 H2          -2.4430     2.2620    -0.2990 hc         1 FJ1       0.073200
     19 H3          -2.7860    -2.0030     0.2840 hc         1 FJ1       0.063700
     20 H4          -2.6050    -1.4040    -1.3550 hc         1 FJ1       0.063700
     21 H5          -0.3160    -3.2420     0.0340 hn         1 FJ1       0.381000
     22 H6          -4.4490     0.1820    -1.3880 hc         1 FJ1       0.041533
     23 H7          -4.9380    -0.4950     0.1660 hc         1 FJ1       0.041533
     24 H8          -4.7540     1.2490    -0.0160 hc         1 FJ1       0.041533
     25 H9          -3.1460     1.3170     1.9350 hc         1 FJ1       0.041533
     26 H10         -3.3770    -0.4190     2.1410 hc         1 FJ1       0.041533
     27 H11         -1.7520     0.2440     2.0020 hc         1 FJ1       0.041533
@<TRIPOS>BOND
     1     1     2 1   
     2     1     4 1   
     3     1    17 1   
     4     1    18 1   
     5     2     3 1   
     6     2    10 1   
     7     2    11 1   
     8     3     6 1   
     9     3    19 1   
    10     3    20 1   
    11     4     5 1   
    12     4    12 2   
    13     5     6 2   
    14     5     9 1   
    15     6     7 1   
    16     7     8 1   
    17     7    21 1   
    18     8     9 2   
    19     9    13 1   
    20    10    22 1   
    21    10    23 1   
    22    10    24 1   
    23    11    25 1   
    24    11    26 1   
    25    11    27 1   
    26    13    14 1   
    27    13    15 1   
    28    13    16 1   
@<TRIPOS>SUBSTRUCTURE
     1 FJ1         1 TEMP              0 ****  ****    0 ROOT
