@<TRIPOS>MOLECULE
FJ2
   41    43     1     0     0
SMALL
No Charge or Current Charge


@<TRIPOS>ATOM
      1 C01         -4.0430     1.7340    -0.0390 ca         1 FJ2       0.215100
      2 C02         -3.3470     2.8220    -0.5710 ca         1 FJ2      -0.211000
      3 C03         -1.9480     2.8520    -0.5440 ca         1 FJ2       0.238100
      4 C04         -1.2050     1.7680    -0.0100 ca         1 FJ2      -0.290500
      5 C05         -1.9290     0.6960     0.5670 ca         1 FJ2       0.015000
      6 C06         -3.3330     0.6710     0.5420 ca         1 FJ2      -0.039000
      7 O07         -1.3280     3.9400    -1.0730 oh         1 FJ2      -0.532100
      8 O08         -5.4070     1.7260    -0.0720 oh         1 FJ2      -0.519100
      9 Cl9         -4.1860    -0.6980     1.2590 cl         1 FJ2      -0.204000
     10 C10          0.2710     1.7770     0.0550 cc         1 FJ2       0.409500
     11 N11          0.9430     2.9240     0.0590 nd         1 FJ2      -0.446300
     12 O12          2.3140     2.5390     0.2380 os         1 FJ2      -0.032700
     13 C13          2.3640     1.1760     0.3170 cd         1 FJ2       0.335900
     14 C14          1.1100     0.6470     0.2650 cc         1 FJ2      -0.238000
     15 C15          0.8850    -0.7970     0.0820 ca         1 FJ2      -0.052000
     16 N16          3.5520     0.4770     0.2760 ns         1 FJ2      -0.492400
     17 C17          4.8300     0.9800     0.3130 c          1 FJ2       0.611100
     18 C18          5.9230    -0.0760     0.2240 c3         1 FJ2      -0.181100
     19 O19          5.0840     2.1700     0.4140 o          1 FJ2      -0.522100
     20 C20         -0.0210    -1.2550    -0.8960 ca         1 FJ2      -0.066000
     21 C21         -0.2380    -2.6310    -1.0810 ca         1 FJ2      -0.174500
     22 C22          0.4430    -3.5720    -0.2960 ca         1 FJ2       0.148100
     23 C23          1.3510    -3.1240     0.6870 ca         1 FJ2      -0.174500
     24 C24          1.5680    -1.7470     0.8710 ca         1 FJ2      -0.066000
     25 O25          0.1880    -4.9090    -0.5220 os         1 FJ2      -0.338100
     26 C26          0.8340    -5.9510     0.2310 c3         1 FJ2       0.147900
     27 H1          -3.8970     3.6520    -1.0050 ha         1 FJ2       0.151000
     28 H2          -1.4160    -0.1200     1.0670 ha         1 FJ2       0.140000
     29 H3          -0.3760     3.8610    -0.8280 ho         1 FJ2       0.512000
     30 H4          -5.7050     0.8940     0.3540 ho         1 FJ2       0.483000
     31 H5           3.5020    -0.5290     0.1930 hn         1 FJ2       0.343500
     32 H6           5.7710    -0.6720    -0.6830 hc         1 FJ2       0.070367
     33 H7           6.9290     0.3570     0.2590 hc         1 FJ2       0.070367
     34 H8           5.7730    -0.8150     1.0190 hc         1 FJ2       0.070367
     35 H9          -0.5470    -0.5460    -1.5310 ha         1 FJ2       0.120000
     36 H10         -0.9370    -2.9710    -1.8420 ha         1 FJ2       0.125500
     37 H11          1.8880    -3.8250     1.3200 ha         1 FJ2       0.125500
     38 H12          2.2450    -1.4220     1.6590 ha         1 FJ2       0.120000
     39 H13          1.9230    -5.9080     0.1010 h1         1 FJ2       0.042367
     40 H14          0.6020    -5.8610     1.2990 h1         1 FJ2       0.042367
     41 H15          0.4900    -6.9350    -0.1100 h1         1 FJ2       0.042367
@<TRIPOS>BOND
     1     1     2 ar  
     2     1     6 ar  
     3     1     8 1   
     4     2     3 ar  
     5     2    27 1   
     6     3     4 ar  
     7     3     7 1   
     8     4     5 ar  
     9     4    10 1   
    10     5     6 ar  
    11     5    28 1   
    12     6     9 1   
    13     7    29 1   
    14     8    30 1   
    15    10    11 2   
    16    10    14 1   
    17    11    12 1   
    18    12    13 1   
    19    13    14 2   
    20    13    16 1   
    21    14    15 1   
    22    15    20 ar  
    23    15    24 ar  
    24    16    17 1   
    25    16    31 1   
    26    17    18 1   
    27    17    19 2   
    28    18    32 1   
    29    18    33 1   
    30    18    34 1   
    31    20    21 ar  
    32    20    35 1   
    33    21    22 ar  
    34    21    36 1   
    35    22    23 ar  
    36    22    25 1   
    37    23    24 ar  
    38    23    37 1   
    39    24    38 1   
    40    25    26 1   
    41    26    39 1   
    42    26    40 1   
    43    26    41 1   
@<TRIPOS>SUBSTRUCTURE
     1 FJ2         1 TEMP              0 ****  ****    0 ROOT
