@<TRIPOS>MOLECULE
FJ2
   41    43     1     0     0
SMALL
abcg2


@<TRIPOS>ATOM
      1 C01         -3.9860     1.6920     0.0140 ca         1 FJ2       0.215100
      2 C02         -3.2590     2.8200    -0.3390 ca         1 FJ2      -0.211000
      3 C03         -1.8700     2.8330    -0.2700 ca         1 FJ2       0.238100
      4 C04         -1.1750     1.6740     0.1330 ca         1 FJ2      -0.290500
      5 C05         -1.9170     0.5550     0.5030 ca         1 FJ2       0.015000
      6 C06         -3.2920     0.5570     0.4480 ca         1 FJ2      -0.039000
      7 O07         -1.2600     3.9730    -0.6070 oh         1 FJ2      -0.532100
      8 O08         -5.3160     1.7510    -0.0690 oh         1 FJ2      -0.519100
      9 CL9         -4.1890    -0.8510     0.9180 cl         1 FJ2      -0.204000
     10 C10          0.2850     1.6420     0.1620 cc         1 FJ2       0.409500
     11 N11          0.9510     2.7680     0.2210 nd         1 FJ2      -0.446300
     12 O12          2.2810     2.4500     0.2020 os         1 FJ2      -0.032700
     13 C13          2.3980     1.1340     0.1400 cd         1 FJ2       0.335900
     14 C14          1.1720     0.5320     0.1070 cc         1 FJ2      -0.238000
     15 C15          0.9090    -0.9060    -0.0210 ca         1 FJ2      -0.052000
     16 N16          3.6300     0.5490     0.0940 ns         1 FJ2      -0.492400
     17 C17          4.8620     1.1650     0.1430 c          1 FJ2       0.611100
     18 C18          6.0130     0.2120    -0.0050 c3         1 FJ2      -0.181100
     19 O19          4.9860     2.3620     0.2650 o          1 FJ2      -0.522100
     20 C20          0.2530    -1.4170    -1.1460 ca         1 FJ2      -0.066000
     21 C21          0.0080    -2.7680    -1.2720 ca         1 FJ2      -0.174500
     22 C22          0.4250    -3.6580    -0.2770 ca         1 FJ2       0.148100
     23 C23          1.0850    -3.1650     0.8450 ca         1 FJ2      -0.174500
     24 C24          1.3140    -1.7990     0.9640 ca         1 FJ2      -0.066000
     25 O25          0.1470    -4.9550    -0.4870 os         1 FJ2      -0.338100
     26 C26          0.5470    -5.9000     0.4870 c3         1 FJ2       0.147900
     27 H1          -3.7840     3.7100    -0.6620 ha         1 FJ2       0.151000
     28 H2          -1.4120    -0.3340     0.8530 ha         1 FJ2       0.140000
     29 H3          -0.3000     3.9070    -0.4360 ho         1 FJ2       0.512000
     30 H4          -5.7230     0.9250     0.2270 ho         1 FJ2       0.483000
     31 H5           3.6090    -0.4570     0.0030 hn         1 FJ2       0.343500
     32 H6           6.2360     0.0850    -1.0660 hc         1 FJ2       0.070367
     33 H7           6.8970     0.6230     0.4770 hc         1 FJ2       0.070367
     34 H8           5.8050    -0.7720     0.4110 hc         1 FJ2       0.070367
     35 H9          -0.0690    -0.7450    -1.9320 ha         1 FJ2       0.120000
     36 H10         -0.5000    -3.1490    -2.1490 ha         1 FJ2       0.125500
     37 H11          1.4220    -3.8180     1.6380 ha         1 FJ2       0.125500
     38 H12          1.8070    -1.4300     1.8550 ha         1 FJ2       0.120000
     39 H13          1.6320    -5.9150     0.6170 h1         1 FJ2       0.042367
     40 H14          0.0770    -5.7110     1.4560 h1         1 FJ2       0.042367
     41 H15          0.2230    -6.8720     0.1250 h1         1 FJ2       0.042367
@<TRIPOS>BOND
     1     1     2 ar  
     2     1     6 ar  
     3     1     8 1   
     4     2     3 ar  
     5     2    27 1   
     6     3     4 ar  
     7     3     7 1   
     8     4     5 ar  
     9     4    10 1   
    10     5     6 ar  
    11     5    28 1   
    12     6     9 1   
    13     7    29 1   
    14     8    30 1   
    15    10    11 2   
    16    10    14 1   
    17    11    12 1   
    18    12    13 1   
    19    13    14 2   
    20    13    16 1   
    21    14    15 1   
    22    15    20 ar  
    23    15    24 ar  
    24    16    17 1   
    25    16    31 1   
    26    17    18 1   
    27    17    19 2   
    28    18    32 1   
    29    18    33 1   
    30    18    34 1   
    31    20    21 ar  
    32    20    35 1   
    33    21    22 ar  
    34    21    36 1   
    35    22    23 ar  
    36    22    25 1   
    37    23    24 ar  
    38    23    37 1   
    39    24    38 1   
    40    25    26 1   
    41    26    39 1   
    42    26    40 1   
    43    26    41 1   
@<TRIPOS>SUBSTRUCTURE
     1 FJ2         1 TEMP              0 ****  ****    0 ROOT
