@<TRIPOS>MOLECULE
FJ3
   31    32     1     0     0
SMALL
abcg2


@<TRIPOS>ATOM
      1 C01         -2.4350     1.1500     0.0030 ca         1 FJ3       0.198100
      2 C02         -1.4270     2.1050     0.0880 ca         1 FJ3      -0.320000
      3 C03         -0.0920     1.7280     0.1630 ca         1 FJ3       0.206100
      4 C04          0.2520     0.3710     0.1500 ca         1 FJ3      -0.214500
      5 C05         -0.7870    -0.5570     0.0660 ca         1 FJ3      -0.007000
      6 C06         -2.1280    -0.2160    -0.0060 ca         1 FJ3      -0.145300
      7 C07         -3.1920    -1.2890    -0.1010 c3         1 FJ3      -0.002400
      8 O08         -3.7280     1.5140    -0.0760 oh         1 FJ3      -0.529100
      9 O09          0.8870     2.6420     0.2620 oh         1 FJ3      -0.522100
     10 C10          1.6390    -0.0950     0.2380 cc         1 FJ3       0.390500
     11 N11          1.8780    -1.2800     0.7420 nd         1 FJ3      -0.396300
     12 O12          3.2420    -1.4660     0.6350 os         1 FJ3      -0.103700
     13 C13          3.7960    -0.3950     0.0740 cd         1 FJ3       0.407900
     14 C14          2.8300     0.5310    -0.2040 cc         1 FJ3      -0.312000
     15 N15          5.1430    -0.3890    -0.0570 nv         1 FJ3      -1.031900
     16 C16         -3.0460    -2.1040    -1.3860 c3         1 FJ3      -0.085600
     17 C17         -3.1700    -2.2030     1.1260 c3         1 FJ3      -0.085600
     18 H1          -1.6840     3.1610     0.1000 ha         1 FJ3       0.113000
     19 H2          -0.5190    -1.6070     0.0430 ha         1 FJ3       0.136000
     20 H3          -4.1700    -0.8060    -0.1290 hc         1 FJ3       0.063700
     21 H4          -3.8120     2.4740    -0.0690 ho         1 FJ3       0.466000
     22 H5           0.5180     3.5330     0.2500 ho         1 FJ3       0.465000
     23 H6           2.9600     1.4870    -0.6770 ha         1 FJ3       0.157000
     24 H7           5.5940    -1.2840    -0.1630 hn         1 FJ3       0.473500
     25 H8           5.5100     0.3110    -0.6810 hn         1 FJ3       0.473500
     26 H9          -2.0970    -2.6440    -1.4070 hc         1 FJ3       0.034533
     27 H10         -3.8460    -2.8420    -1.4680 hc         1 FJ3       0.034533
     28 H11         -3.0850    -1.4670    -2.2700 hc         1 FJ3       0.034533
     29 H12         -3.9800    -2.9320     1.0730 hc         1 FJ3       0.034533
     30 H13         -2.2320    -2.7570     1.1940 hc         1 FJ3       0.034533
     31 H14         -3.2880    -1.6340     2.0490 hc         1 FJ3       0.034533
@<TRIPOS>BOND
     1     1     2 ar  
     2     1     6 ar  
     3     1     8 1   
     4     2     3 ar  
     5     2    18 1   
     6     3     4 ar  
     7     3     9 1   
     8     4     5 ar  
     9     4    10 1   
    10     5     6 ar  
    11     5    19 1   
    12     6     7 1   
    13     7    16 1   
    14     7    17 1   
    15     7    20 1   
    16     8    21 1   
    17     9    22 1   
    18    10    11 2   
    19    10    14 1   
    20    11    12 1   
    21    12    13 1   
    22    13    14 2   
    23    13    15 1   
    24    14    23 1   
    25    15    24 1   
    26    15    25 1   
    27    16    26 1   
    28    16    27 1   
    29    16    28 1   
    30    17    29 1   
    31    17    30 1   
    32    17    31 1   
@<TRIPOS>SUBSTRUCTURE
     1 FJ3         1 TEMP              0 ****  ****    0 ROOT
