@<TRIPOS>MOLECULE
FJ3
   31    32     1     0     0
SMALL
No Charge or Current Charge


@<TRIPOS>ATOM
      1 C01         -2.4240     1.1490    -0.0300 ca         1 FJ3       0.198100
      2 C02         -1.3860     2.0830    -0.0130 ca         1 FJ3      -0.320000
      3 C03         -0.0490     1.6700     0.0080 ca         1 FJ3       0.206100
      4 C04          0.2870     0.2910     0.0110 ca         1 FJ3      -0.214500
      5 C05         -0.7860    -0.6380    -0.0070 ca         1 FJ3      -0.007000
      6 C06         -2.1360    -0.2300    -0.0280 ca         1 FJ3      -0.145300
      7 C07         -3.2480    -1.2950    -0.0470 c3         1 FJ3      -0.002400
      8 O08         -3.7060     1.6100    -0.0500 oh         1 FJ3      -0.529100
      9 O09          0.8890     2.6500     0.0230 oh         1 FJ3      -0.522100
     10 C10          1.6780    -0.2350     0.0320 cc         1 FJ3       0.390500
     11 N11          1.9130    -1.5470     0.0290 nd         1 FJ3      -0.396300
     12 O12          3.3470    -1.6690     0.0530 os         1 FJ3      -0.103700
     13 C13          3.8670    -0.4120     0.0680 cd         1 FJ3       0.407900
     14 C14          2.8870     0.5030     0.0560 cc         1 FJ3      -0.312000
     15 N15          5.2130    -0.2370     0.0910 nv         1 FJ3      -1.031900
     16 C16         -3.1800    -2.1610    -1.3260 c3         1 FJ3      -0.085600
     17 C17         -3.2210    -2.1640     1.2300 c3         1 FJ3      -0.085600
     18 H1          -1.6220     3.1440    -0.0150 ha         1 FJ3       0.113000
     19 H2          -0.5790    -1.7050    -0.0060 ha         1 FJ3       0.136000
     20 H3          -4.2330    -0.8130    -0.0620 hc         1 FJ3       0.063700
     21 H4          -3.6740     2.5890    -0.0480 ho         1 FJ3       0.466000
     22 H5           0.4240     3.5110     0.0170 ho         1 FJ3       0.465000
     23 H6           3.0200     1.5720     0.0640 ha         1 FJ3       0.157000
     24 H7           5.8140    -1.0360    -0.0970 hn         1 FJ3       0.473500
     25 H8           5.5960     0.6860    -0.1040 hn         1 FJ3       0.473500
     26 H9          -2.2560    -2.7490    -1.3620 hc         1 FJ3       0.034533
     27 H10         -4.0270    -2.8560    -1.3660 hc         1 FJ3       0.034533
     28 H11         -3.2200    -1.5270    -2.2200 hc         1 FJ3       0.034533
     29 H12         -4.0690    -2.8600     1.2420 hc         1 FJ3       0.034533
     30 H13         -2.2980    -2.7520     1.2950 hc         1 FJ3       0.034533
     31 H14         -3.2890    -1.5330     2.1240 hc         1 FJ3       0.034533
@<TRIPOS>BOND
     1     1     2 ar  
     2     1     6 ar  
     3     1     8 1   
     4     2     3 ar  
     5     2    18 1   
     6     3     4 ar  
     7     3     9 1   
     8     4     5 ar  
     9     4    10 1   
    10     5     6 ar  
    11     5    19 1   
    12     6     7 1   
    13     7    16 1   
    14     7    17 1   
    15     7    20 1   
    16     8    21 1   
    17     9    22 1   
    18    10    11 2   
    19    10    14 1   
    20    11    12 1   
    21    12    13 1   
    22    13    14 2   
    23    13    15 1   
    24    14    23 1   
    25    15    24 1   
    26    15    25 1   
    27    16    26 1   
    28    16    27 1   
    29    16    28 1   
    30    17    29 1   
    31    17    30 1   
    32    17    31 1   
@<TRIPOS>SUBSTRUCTURE
     1 FJ3         1 TEMP              0 ****  ****    0 ROOT
