@<TRIPOS>MOLECULE
FJ4
   33    34     1     0     0
SMALL
No Charge or Current Charge


@<TRIPOS>ATOM
      1 C01          3.3140     1.8280     0.0230 ca         1 FJ4      -0.225000
      2 C02          3.3870     1.0590     1.1870 ca         1 FJ4       0.231100
      3 C03          2.4360     0.0500     1.4190 ca         1 FJ4      -0.047000
      4 C04          2.3030     1.5960    -0.9150 ca         1 FJ4       0.265100
      5 C05          1.3470     0.5760    -0.7130 ca         1 FJ4      -0.336600
      6 C06          1.4220    -0.1890     0.4770 ca         1 FJ4       0.027000
      7 C07         -0.5210    -1.0120    -1.7300 c3         1 FJ4      -0.114100
      8 C08          0.2590     0.3160    -1.7330 c          1 FJ4       0.604700
      9 O09         -0.0120     1.1790    -2.5610 o          1 FJ4      -0.559100
     10 O10          2.2650     2.3780    -2.0250 oh         1 FJ4      -0.534100
     11 O11          4.3780     1.3030     2.0910 oh         1 FJ4      -0.515100
     12 C12         -1.8320    -0.9000    -0.9480 ca         1 FJ4      -0.115300
     13 C13         -2.0540    -1.6930     0.1960 ca         1 FJ4      -0.057000
     14 C14         -3.2600    -1.5850     0.9090 ca         1 FJ4      -0.169500
     15 C15         -4.2590    -0.6940     0.4890 ca         1 FJ4       0.146100
     16 C16         -4.0460     0.0950    -0.6620 ca         1 FJ4      -0.169500
     17 C17         -2.8390    -0.0130    -1.3750 ca         1 FJ4      -0.057000
     18 O18         -5.4220    -0.6320     1.2300 os         1 FJ4      -0.341100
     19 C19         -6.5070     0.2470     0.8840 c3         1 FJ4       0.148900
     20 Cl           2.4970    -0.9240     2.8890 cl         1 FJ4      -0.201000
     21 H1           4.0440     2.6130    -0.1520 ha         1 FJ4       0.154000
     22 H2           0.6950    -0.9650     0.6980 ha         1 FJ4       0.127000
     23 H3          -0.7530    -1.2780    -2.7670 hc         1 FJ4       0.070700
     24 H4           0.1010    -1.8000    -1.2920 hc         1 FJ4       0.070700
     25 H5           1.4200     2.1500    -2.4870 ho         1 FJ4       0.521000
     26 H6           4.2590     0.6710     2.8320 ho         1 FJ4       0.486000
     27 H7          -1.2960    -2.3960     0.5360 ha         1 FJ4       0.110500
     28 H8          -3.4220    -2.1980     1.7920 ha         1 FJ4       0.122500
     29 H9          -4.8000     0.7910    -1.0170 ha         1 FJ4       0.122500
     30 H10         -2.6900     0.5970    -2.2630 ha         1 FJ4       0.110500
     31 H11         -7.3290     0.1380     1.6020 h1         1 FJ4       0.040700
     32 H12         -6.1790     1.2950     0.8990 h1         1 FJ4       0.040700
     33 H13         -6.8950     0.0130    -0.1160 h1         1 FJ4       0.040700
@<TRIPOS>BOND
     1     1     2 ar  
     2     1     4 ar  
     3     1    21 1   
     4     2     3 ar  
     5     2    11 1   
     6     3     6 ar  
     7     3    20 1   
     8     4     5 ar  
     9     4    10 1   
    10     5     6 ar  
    11     5     8 1   
    12     6    22 1   
    13     7     8 1   
    14     7    12 1   
    15     7    23 1   
    16     7    24 1   
    17     8     9 2   
    18    10    25 1   
    19    11    26 1   
    20    12    13 ar  
    21    12    17 ar  
    22    13    14 ar  
    23    13    27 1   
    24    14    15 ar  
    25    14    28 1   
    26    15    16 ar  
    27    15    18 1   
    28    16    17 ar  
    29    16    29 1   
    30    17    30 1   
    31    18    19 1   
    32    19    31 1   
    33    19    32 1   
    34    19    33 1   
@<TRIPOS>SUBSTRUCTURE
     1 FJ4         1 TEMP              0 ****  ****    0 ROOT
