@<TRIPOS>MOLECULE
FJ4
   33    34     1     0     0
SMALL
bcc


@<TRIPOS>ATOM
      1 C01          3.6740     1.7480     0.0040 ca         1 FJ4      -0.243000
      2 C02          4.3670     0.5480     0.0100 ca         1 FJ4       0.231100
      3 C03          3.6440    -0.6580     0.0130 ca         1 FJ4      -0.138600
      4 C04          2.2830     1.7680     0.0040 ca         1 FJ4       0.265100
      5 C05          1.5560     0.5540     0.0120 ca         1 FJ4      -0.336600
      6 C06          2.2730    -0.6470     0.0160 ca         1 FJ4       0.009000
      7 C07         -0.6590    -0.7370     0.0380 c3         1 FJ4      -0.114100
      8 C08          0.0920     0.5760     0.0180 c          1 FJ4       0.604700
      9 O09         -0.5160     1.6410     0.0070 o          1 FJ4      -0.559100
     10 O10          1.6820     2.9510    -0.0020 oh         1 FJ4      -0.495100
     11 O11          5.6960     0.5940     0.0110 oh         1 FJ4      -0.476100
     12 C12         -2.1470    -0.5700     0.0780 ca         1 FJ4      -0.115300
     13 C13         -2.8130    -0.3960     1.2900 ca         1 FJ4      -0.075000
     14 C14         -4.1840    -0.2320     1.3380 ca         1 FJ4      -0.187500
     15 C15         -4.9330    -0.2360     0.1590 ca         1 FJ4       0.146100
     16 C16         -4.2830    -0.4070    -1.0600 ca         1 FJ4      -0.187500
     17 C17         -2.9020    -0.5710    -1.0850 ca         1 FJ4      -0.075000
     18 O18         -6.2640    -0.0760     0.2970 os         1 FJ4      -0.317900
     19 C19         -7.0700    -0.0990    -0.8630 c3         1 FJ4       0.125700
     20 CL           4.5160    -2.1570     0.0160 cl         1 FJ4      -0.109400
     21 H1           4.2240     2.6800     0.0010 ha         1 FJ4       0.172000
     22 H2           1.7460    -1.5910     0.0210 ha         1 FJ4       0.145000
     23 H3          -0.3570    -1.3130    -0.8410 hc         1 FJ4       0.070700
     24 H4          -0.3120    -1.3140     0.9000 hc         1 FJ4       0.070700
     25 H5           0.7110     2.7880    -0.0010 ho         1 FJ4       0.482000
     26 H6           6.0810    -0.2930     0.0240 ho         1 FJ4       0.447000
     27 H7          -2.2510    -0.3970     2.2160 ha         1 FJ4       0.128500
     28 H8          -4.6870    -0.1020     2.2890 ha         1 FJ4       0.140500
     29 H9          -4.8290    -0.4190    -1.9930 ha         1 FJ4       0.140500
     30 H10         -2.4130    -0.7090    -2.0420 ha         1 FJ4       0.128500
     31 H11         -8.0970     0.0300    -0.5280 h1         1 FJ4       0.040700
     32 H12         -6.8220     0.7120    -1.5520 h1         1 FJ4       0.040700
     33 H13         -6.9930    -1.0500    -1.3970 h1         1 FJ4       0.040700
@<TRIPOS>BOND
     1     1     2 ar  
     2     1     4 ar  
     3     1    21 1   
     4     2     3 ar  
     5     2    11 1   
     6     3     6 ar  
     7     3    20 1   
     8     4     5 ar  
     9     4    10 1   
    10     5     6 ar  
    11     5     8 1   
    12     6    22 1   
    13     7     8 1   
    14     7    12 1   
    15     7    23 1   
    16     7    24 1   
    17     8     9 2   
    18    10    25 1   
    19    11    26 1   
    20    12    13 ar  
    21    12    17 ar  
    22    13    14 ar  
    23    13    27 1   
    24    14    15 ar  
    25    14    28 1   
    26    15    16 ar  
    27    15    18 1   
    28    16    17 ar  
    29    16    29 1   
    30    17    30 1   
    31    18    19 1   
    32    19    31 1   
    33    19    32 1   
    34    19    33 1   
@<TRIPOS>SUBSTRUCTURE
     1 FJ4         1 TEMP              0 ****  ****    0 ROOT
