@<TRIPOS>MOLECULE
FJ5
   66    70     1     0     0
SMALL
No Charge or Current Charge


@<TRIPOS>ATOM
      1 C01         -3.4100    -0.0120     0.3390 ca         1 FJ5      -0.296500
      2 C02         -3.0340     1.1710    -0.3380 ca         1 FJ5      -0.004000
      3 C03         -3.7370     2.3820    -0.1710 ca         1 FJ5      -0.155300
      4 C04         -4.8750     2.3940     0.6630 ca         1 FJ5       0.201100
      5 C05         -5.2930     1.2190     1.2960 ca         1 FJ5      -0.274000
      6 C06         -4.5830     0.0280     1.1270 ca         1 FJ5       0.237100
      7 O07         -5.0410    -1.0780     1.7690 oh         1 FJ5      -0.540100
      8 O08         -5.6030     3.5310     0.8560 oh         1 FJ5      -0.529100
      9 C09         -3.2570     3.6400    -0.9160 c3         1 FJ5       0.002600
     10 C10         -2.6400    -1.2550     0.1260 cc         1 FJ5       0.420500
     11 C11         -1.7800     3.9700    -0.5970 c3         1 FJ5      -0.085600
     12 C12         -3.4910     3.5080    -2.4370 c3         1 FJ5      -0.085600
     13 N13         -3.2160    -2.4460     0.2600 nd         1 FJ5      -0.454300
     14 O14         -2.1970    -3.3840    -0.1180 os         1 FJ5      -0.033700
     15 C15         -1.0730    -2.6780    -0.4440 cd         1 FJ5       0.337900
     16 C16         -1.3070    -1.3410    -0.3640 cc         1 FJ5      -0.250000
     17 C17         -0.2090    -0.3620    -0.4100 ca         1 FJ5      -0.012000
     18 C18         -0.1230     0.6550     0.5620 ca         1 FJ5      -0.102500
     19 C19          0.9240     1.5910     0.5320 ca         1 FJ5      -0.105500
     20 C20          1.9050     1.5280    -0.4750 ca         1 FJ5      -0.080300
     21 C21          1.8230     0.5170    -1.4500 ca         1 FJ5      -0.105500
     22 C22          0.7770    -0.4200    -1.4170 ca         1 FJ5      -0.102500
     23 C23          3.0460     2.5410    -0.5120 c3         1 FJ5       0.214100
     24 N24          4.3740     1.9400    -0.2410 n3         1 FJ5      -0.723600
     25 N25          0.1480    -3.2830    -0.6450 ns         1 FJ5      -0.484400
     26 C26          0.4310    -4.6210    -0.6910 c          1 FJ5       0.644100
     27 O27         -0.4060    -5.5030    -0.5820 o          1 FJ5      -0.533100
     28 C28          1.8940    -4.9130    -0.9070 cx         1 FJ5      -0.256700
     29 C29          2.9020    -4.4130     0.1120 cx         1 FJ5      -0.090400
     30 C30          2.5900    -5.8880     0.0230 cx         1 FJ5      -0.090400
     31 C31          4.4700     1.2900     1.1050 c6         1 FJ5       0.128800
     32 C32          5.8780     0.6670     1.3460 c6         1 FJ5       0.153100
     33 O33          6.9100     1.6650     1.1560 os         1 FJ5      -0.449000
     34 C34          6.8830     2.2490    -0.1680 c6         1 FJ5       0.153100
     35 C35          5.4970     2.9080    -0.4410 c6         1 FJ5       0.128800
     36 H1          -2.1970     1.1550    -1.0290 ha         1 FJ5       0.128000
     37 H2          -6.1790     1.2210     1.9250 ha         1 FJ5       0.131000
     38 H3          -4.5140    -1.8340     1.4150 ho         1 FJ5       0.511000
     39 H4          -6.3460     3.3180     1.4580 ho         1 FJ5       0.469000
     40 H5          -3.8340     4.5130    -0.5900 hc         1 FJ5       0.059700
     41 H6          -1.4990     4.9360    -1.0350 hc         1 FJ5       0.033533
     42 H7          -1.6250     4.0310     0.4870 hc         1 FJ5       0.033533
     43 H8          -1.1010     3.2090    -1.0000 hc         1 FJ5       0.033533
     44 H9          -4.5490     3.3120    -2.6460 hc         1 FJ5       0.033533
     45 H10         -3.2080     4.4330    -2.9540 hc         1 FJ5       0.033533
     46 H11         -2.9000     2.6860    -2.8590 hc         1 FJ5       0.033533
     47 H12         -0.8600     0.7130     1.3590 ha         1 FJ5       0.121000
     48 H13          0.9750     2.3640     1.2960 ha         1 FJ5       0.123500
     49 H14          2.5730     0.4620    -2.2350 ha         1 FJ5       0.123500
     50 H15          0.7180    -1.1700    -2.2030 ha         1 FJ5       0.121000
     51 H16          3.0480     3.0080    -1.5070 h1         1 FJ5       0.042200
     52 H17          2.8420     3.3420     0.2120 h1         1 FJ5       0.042200
     53 H19          0.9570    -2.6890    -0.7570 hn         1 FJ5       0.344500
     54 H20          2.2070    -4.9220    -1.9470 hc         1 FJ5       0.089700
     55 H21          3.8700    -4.0770    -0.2520 hc         1 FJ5       0.085700
     56 H22          2.5370    -3.8760     0.9860 hc         1 FJ5       0.085700
     57 H23          2.0130    -6.3320     0.8320 hc         1 FJ5       0.085700
     58 H24          3.3500    -6.5420    -0.4010 hc         1 FJ5       0.085700
     59 H25          4.2700     2.0250     1.8990 h1         1 FJ5       0.042200
     60 H26          3.7180     0.4940     1.2060 h1         1 FJ5       0.042200
     61 H27          5.9420     0.2720     2.3700 h1         1 FJ5       0.051200
     62 H28          6.0440    -0.1650     0.6470 h1         1 FJ5       0.051200
     63 H29          7.6780     3.0040    -0.2460 h1         1 FJ5       0.051200
     64 H30          7.0800     1.4670    -0.9150 h1         1 FJ5       0.051200
     65 H31          5.4880     3.2960    -1.4700 h1         1 FJ5       0.042200
     66 H32          5.3810     3.7720     0.2310 h1         1 FJ5       0.042200
@<TRIPOS>BOND
     1     1     2 ar  
     2     1     6 ar  
     3     1    10 1   
     4     2     3 ar  
     5     2    36 1   
     6     3     4 ar  
     7     3     9 1   
     8     4     5 ar  
     9     4     8 1   
    10     5     6 ar  
    11     5    37 1   
    12     6     7 1   
    13     7    38 1   
    14     8    39 1   
    15     9    11 1   
    16     9    12 1   
    17     9    40 1   
    18    10    13 2   
    19    10    16 1   
    20    11    41 1   
    21    11    42 1   
    22    11    43 1   
    23    12    44 1   
    24    12    45 1   
    25    12    46 1   
    26    13    14 1   
    27    14    15 1   
    28    15    16 2   
    29    15    25 1   
    30    16    17 1   
    31    17    18 ar  
    32    17    22 ar  
    33    18    19 ar  
    34    18    47 1   
    35    19    20 ar  
    36    19    48 1   
    37    20    21 ar  
    38    20    23 1   
    39    21    22 ar  
    40    21    49 1   
    41    22    50 1   
    42    23    24 1   
    43    23    51 1   
    44    23    52 1   
    45    24    31 1   
    46    24    35 1   
    47    25    26 1   
    48    25    53 1   
    49    26    27 2   
    50    26    28 1   
    51    28    29 1   
    52    28    30 1   
    53    28    54 1   
    54    29    30 1   
    55    29    55 1   
    56    29    56 1   
    57    30    57 1   
    58    30    58 1   
    59    31    32 1   
    60    31    59 1   
    61    31    60 1   
    62    32    33 1   
    63    32    61 1   
    64    32    62 1   
    65    33    34 1   
    66    34    35 1   
    67    34    63 1   
    68    34    64 1   
    69    35    65 1   
    70    35    66 1   
@<TRIPOS>SUBSTRUCTURE
     1 FJ5         1 TEMP              0 ****  ****    0 ROOT
