@<TRIPOS>MOLECULE
FJ5
   66    70     1     0     0
SMALL
abcg2


@<TRIPOS>ATOM
      1 C01         -3.3370    -0.0230    -0.0790 ca         1 FJ5      -0.296500
      2 C02         -2.7490     1.2180    -0.3470 ca         1 FJ5      -0.004000
      3 C03         -3.4490     2.4060    -0.3990 ca         1 FJ5      -0.155300
      4 C04         -4.8350     2.3340    -0.1820 ca         1 FJ5       0.201100
      5 C05         -5.4580     1.1210     0.0750 ca         1 FJ5      -0.274000
      6 C06         -4.7290    -0.0630     0.1210 ca         1 FJ5       0.237100
      7 O07         -5.4120    -1.1880     0.3650 oh         1 FJ5      -0.540100
      8 O08         -5.5370     3.4780    -0.2420 oh         1 FJ5      -0.529100
      9 C09         -2.7770     3.7240    -0.7210 c3         1 FJ5       0.002600
     10 C10         -2.5280    -1.2360    -0.0030 cc         1 FJ5       0.420500
     11 C11         -1.3120     3.7800    -0.2950 c3         1 FJ5      -0.085600
     12 C12         -2.9150     4.0450    -2.2120 c3         1 FJ5      -0.085600
     13 N13         -3.1150    -2.4080    -0.0310 nd         1 FJ5      -0.454300
     14 O14         -2.1370    -3.3580     0.0780 os         1 FJ5      -0.033700
     15 C15         -0.9670    -2.7450     0.1630 cd         1 FJ5       0.337900
     16 C16         -1.1180    -1.3900     0.1220 cc         1 FJ5      -0.250000
     17 C17         -0.0430    -0.3920     0.2200 ca         1 FJ5      -0.012000
     18 C18          0.1000     0.3910     1.3650 ca         1 FJ5      -0.102500
     19 C19          1.0950     1.3520     1.4380 ca         1 FJ5      -0.105500
     20 C20          1.9680     1.5620     0.3740 ca         1 FJ5      -0.080300
     21 C21          1.8390     0.7650    -0.7590 ca         1 FJ5      -0.105500
     22 C22          0.8470    -0.2020    -0.8350 ca         1 FJ5      -0.102500
     23 C23          2.9760     2.6800     0.4330 c3         1 FJ5       0.214100
     24 N24          4.1540     2.4320    -0.3630 n3         1 FJ5      -0.723600
     25 N25          0.1850    -3.4640     0.2950 ns         1 FJ5      -0.484400
     26 C26          0.3230    -4.8310     0.3680 c          1 FJ5       0.644100
     27 O27         -0.6190    -5.5900     0.2850 o          1 FJ5      -0.533100
     28 C28          1.7230    -5.2710     0.5620 cx         1 FJ5      -0.256700
     29 C29          1.9560    -6.5040     1.4000 cx         1 FJ5      -0.090400
     30 C30          2.1430    -6.5760    -0.0670 cx         1 FJ5      -0.090400
     31 C31          5.0110     1.4120     0.2110 c6         1 FJ5       0.128800
     32 C32          6.1950     1.1580    -0.7040 c6         1 FJ5       0.153100
     33 O33          6.9250     2.3400    -0.9510 os         1 FJ5      -0.449000
     34 C34          6.0960     3.3370    -1.5070 c6         1 FJ5       0.153100
     35 C35          4.9130     3.6430    -0.6090 c6         1 FJ5       0.128800
     36 H1          -1.6850     1.2480    -0.5280 ha         1 FJ5       0.128000
     37 H2          -6.5300     1.0800     0.2330 ha         1 FJ5       0.131000
     38 H3          -4.8160    -1.9620     0.3090 ho         1 FJ5       0.511000
     39 H4          -6.4720     3.3130    -0.0770 ho         1 FJ5       0.469000
     40 H5          -3.2970     4.5090    -0.1630 hc         1 FJ5       0.059700
     41 H6          -0.9250     4.7890    -0.4460 hc         1 FJ5       0.033533
     42 H7          -1.1840     3.5260     0.7580 hc         1 FJ5       0.033533
     43 H8          -0.6800     3.1060    -0.8760 hc         1 FJ5       0.033533
     44 H9          -3.9580     4.0620    -2.5280 hc         1 FJ5       0.033533
     45 H10         -2.4830     5.0220    -2.4400 hc         1 FJ5       0.033533
     46 H11         -2.3940     3.3000    -2.8160 hc         1 FJ5       0.033533
     47 H12         -0.5780     0.2500     2.1980 ha         1 FJ5       0.121000
     48 H13          1.1870     1.9530     2.3360 ha         1 FJ5       0.123500
     49 H14          2.5190     0.9080    -1.5880 ha         1 FJ5       0.123500
     50 H15          0.7500    -0.8020    -1.7320 ha         1 FJ5       0.121000
     51 H16          2.4950     3.5850     0.0460 h1         1 FJ5       0.042200
     52 H17          3.2200     2.8990     1.4870 h1         1 FJ5       0.042200
     53 H19          1.0200    -2.9000     0.3760 hn         1 FJ5       0.344500
     54 H20          2.4750    -4.4940     0.6190 hc         1 FJ5       0.089700
     55 H21          2.8290    -6.4930     2.0380 hc         1 FJ5       0.085700
     56 H22          1.0830    -6.9790     1.8290 hc         1 FJ5       0.085700
     57 H23          1.4040    -7.1030    -0.6550 hc         1 FJ5       0.085700
     58 H24          3.1500    -6.6150    -0.4610 hc         1 FJ5       0.085700
     59 H25          5.3710     1.7040     1.2130 h1         1 FJ5       0.042200
     60 H26          4.4530     0.4800     0.3280 h1         1 FJ5       0.042200
     61 H27          6.8780     0.4430    -0.2420 h1         1 FJ5       0.051200
     62 H28          5.8360     0.7230    -1.6470 h1         1 FJ5       0.051200
     63 H29          6.7060     4.2310    -1.6430 h1         1 FJ5       0.051200
     64 H30          5.7280     3.0230    -2.4940 h1         1 FJ5       0.051200
     65 H31          4.2740     4.3770    -1.1070 h1         1 FJ5       0.042200
     66 H32          5.2700     4.1050     0.3280 h1         1 FJ5       0.042200
@<TRIPOS>BOND
     1     1     2 ar  
     2     1     6 ar  
     3     1    10 1   
     4     2     3 ar  
     5     2    36 1   
     6     3     4 ar  
     7     3     9 1   
     8     4     5 ar  
     9     4     8 1   
    10     5     6 ar  
    11     5    37 1   
    12     6     7 1   
    13     7    38 1   
    14     8    39 1   
    15     9    11 1   
    16     9    12 1   
    17     9    40 1   
    18    10    13 2   
    19    10    16 1   
    20    11    41 1   
    21    11    42 1   
    22    11    43 1   
    23    12    44 1   
    24    12    45 1   
    25    12    46 1   
    26    13    14 1   
    27    14    15 1   
    28    15    16 2   
    29    15    25 1   
    30    16    17 1   
    31    17    18 ar  
    32    17    22 ar  
    33    18    19 ar  
    34    18    47 1   
    35    19    20 ar  
    36    19    48 1   
    37    20    21 ar  
    38    20    23 1   
    39    21    22 ar  
    40    21    49 1   
    41    22    50 1   
    42    23    24 1   
    43    23    51 1   
    44    23    52 1   
    45    24    31 1   
    46    24    35 1   
    47    25    26 1   
    48    25    53 1   
    49    26    27 2   
    50    26    28 1   
    51    28    29 1   
    52    28    30 1   
    53    28    54 1   
    54    29    30 1   
    55    29    55 1   
    56    29    56 1   
    57    30    57 1   
    58    30    58 1   
    59    31    32 1   
    60    31    59 1   
    61    31    60 1   
    62    32    33 1   
    63    32    61 1   
    64    32    62 1   
    65    33    34 1   
    66    34    35 1   
    67    34    63 1   
    68    34    64 1   
    69    35    65 1   
    70    35    66 1   
@<TRIPOS>SUBSTRUCTURE
     1 FJ5         1 TEMP              0 ****  ****    0 ROOT
