@<TRIPOS>MOLECULE
FJ6
   54    57     1     0     0
SMALL
No Charge or Current Charge


@<TRIPOS>ATOM
      1 C01          1.3910    -1.8510    -0.5690 ca         1 FJ6      -0.218500
      2 C02          2.0760    -0.9560     0.2830 ca         1 FJ6      -0.004000
      3 C03          3.4840    -0.9270     0.3640 ca         1 FJ6      -0.210300
      4 C04          4.2180    -1.8590    -0.3990 ca         1 FJ6       0.201100
      5 C05          3.5560    -2.7800    -1.2140 ca         1 FJ6      -0.262000
      6 C06          2.1580    -2.7890    -1.3000 ca         1 FJ6       0.208100
      7 O07          1.5800    -3.6810    -2.1520 oh         1 FJ6      -0.509100
      8 O08          5.5780    -1.9000    -0.3590 oh         1 FJ6      -0.535100
      9 C09          4.1570     0.1020     1.2910 c3         1 FJ6       0.001600
     10 C10         -0.0880    -1.8380    -0.5850 cc         1 FJ6       0.380500
     11 C11          3.7280     1.5480     0.9490 c3         1 FJ6      -0.087600
     12 C12          3.8910    -0.2320     2.7750 c3         1 FJ6      -0.087600
     13 N13         -0.8020    -2.9500    -0.7330 nd         1 FJ6      -0.341300
     14 O14         -2.1640    -2.5370    -0.5560 os         1 FJ6      -0.054700
     15 C15         -2.1680    -1.1950    -0.3050 cd         1 FJ6       0.327900
     16 C16         -0.8970    -0.7150    -0.2460 cc         1 FJ6      -0.239000
     17 C17         -0.6020     0.7280    -0.2000 ca         1 FJ6      -0.038000
     18 C18         -1.2950     1.5870     0.6800 ca         1 FJ6      -0.068500
     19 C19         -0.9910     2.9580     0.7250 ca         1 FJ6      -0.174500
     20 C20          0.0060     3.4950    -0.1020 ca         1 FJ6       0.139100
     21 C21          0.7030     2.6460    -0.9860 ca         1 FJ6      -0.174500
     22 C22          0.3990     1.2740    -1.0300 ca         1 FJ6      -0.068500
     23 O23          0.2670     4.8470    -0.0070 os         1 FJ6      -0.341100
     24 C24          1.2890     5.4870    -0.7920 c3         1 FJ6       0.148900
     25 N25         -3.3270    -0.4520    -0.2840 ns         1 FJ6      -0.486400
     26 C26         -4.6200    -0.9000    -0.3360 c          1 FJ6       0.643100
     27 O27         -4.9350    -2.0780    -0.4030 o          1 FJ6      -0.538100
     28 C28         -5.6380     0.2120    -0.3070 cx         1 FJ6      -0.254700
     29 C29         -5.6890     1.1270     0.9030 cx         1 FJ6      -0.092400
     30 C30         -6.7930     0.1220     0.6720 cx         1 FJ6      -0.092400
     31 H1           1.5090    -0.2810     0.9170 ha         1 FJ6       0.126000
     32 H2           4.1450    -3.4890    -1.7910 ha         1 FJ6       0.131000
     33 H3           2.2900    -4.2220    -2.5550 ho         1 FJ6       0.467000
     34 H4           5.8770    -1.2080     0.2650 ho         1 FJ6       0.471000
     35 H5           5.2440     0.0780     1.1600 hc         1 FJ6       0.028700
     36 H6           2.6670     1.7170     1.1670 hc         1 FJ6       0.037533
     37 H7           4.3100     2.2700     1.5350 hc         1 FJ6       0.037533
     38 H8           3.8980     1.7590    -0.1140 hc         1 FJ6       0.037533
     39 H9           4.2330    -1.2480     3.0070 hc         1 FJ6       0.037533
     40 H10          4.4280     0.4650     3.4300 hc         1 FJ6       0.037533
     41 H11          2.8230    -0.1670     3.0110 hc         1 FJ6       0.037533
     42 H12         -2.0410     1.1920     1.3650 ha         1 FJ6       0.120000
     43 H13         -1.5230     3.6080     1.4160 ha         1 FJ6       0.123000
     44 H14          1.4800     3.0270    -1.6420 ha         1 FJ6       0.123000
     45 H15          0.9370     0.6370    -1.7270 ha         1 FJ6       0.120000
     46 H16          1.3330     6.5580    -0.5570 h1         1 FJ6       0.041367
     47 H17          2.2740     5.0510    -0.5790 h1         1 FJ6       0.041367
     48 H18          1.0810     5.3820    -1.8640 h1         1 FJ6       0.041367
     49 H19         -3.2450     0.5530    -0.2340 hn         1 FJ6       0.341500
     50 H20         -5.8510     0.6590    -1.2740 hc         1 FJ6       0.089700
     51 H21         -5.0060     0.9390     1.7280 hc         1 FJ6       0.084950
     52 H22         -5.9190     2.1780     0.7370 hc         1 FJ6       0.084950
     53 H23         -7.7620     0.4980     0.3510 hc         1 FJ6       0.084950
     54 H24         -6.8400    -0.7380     1.3370 hc         1 FJ6       0.084950
@<TRIPOS>BOND
     1     1     2 ar  
     2     1     6 ar  
     3     1    10 1   
     4     2     3 ar  
     5     2    31 1   
     6     3     4 ar  
     7     3     9 1   
     8     4     5 ar  
     9     4     8 1   
    10     5     6 ar  
    11     5    32 1   
    12     6     7 1   
    13     7    33 1   
    14     8    34 1   
    15     9    11 1   
    16     9    12 1   
    17     9    35 1   
    18    10    13 2   
    19    10    16 1   
    20    11    36 1   
    21    11    37 1   
    22    11    38 1   
    23    12    39 1   
    24    12    40 1   
    25    12    41 1   
    26    13    14 1   
    27    14    15 1   
    28    15    16 2   
    29    15    25 1   
    30    16    17 1   
    31    17    18 ar  
    32    17    22 ar  
    33    18    19 ar  
    34    18    42 1   
    35    19    20 ar  
    36    19    43 1   
    37    20    21 ar  
    38    20    23 1   
    39    21    22 ar  
    40    21    44 1   
    41    22    45 1   
    42    23    24 1   
    43    24    46 1   
    44    24    47 1   
    45    24    48 1   
    46    25    26 1   
    47    25    49 1   
    48    26    27 2   
    49    26    28 1   
    50    28    29 1   
    51    28    30 1   
    52    28    50 1   
    53    29    30 1   
    54    29    51 1   
    55    29    52 1   
    56    30    53 1   
    57    30    54 1   
@<TRIPOS>SUBSTRUCTURE
     1 FJ6         1 TEMP              0 ****  ****    0 ROOT
