@<TRIPOS>MOLECULE
FJ6
   54    57     1     0     0
SMALL
abcg2


@<TRIPOS>ATOM
      1 C01          1.3270    -1.7670    -0.3710 ca         1 FJ6      -0.218500
      2 C02          2.0900    -0.9250     0.4320 ca         1 FJ6      -0.004000
      3 C03          3.4750    -0.8710     0.4060 ca         1 FJ6      -0.210300
      4 C04          4.1210    -1.7330    -0.4900 ca         1 FJ6       0.201100
      5 C05          3.3880    -2.5950    -1.3030 ca         1 FJ6      -0.262000
      6 C06          2.0020    -2.6190    -1.2540 ca         1 FJ6       0.208100
      7 O07          1.2790    -3.4280    -2.0460 oh         1 FJ6      -0.509100
      8 O08          5.4580    -1.7980    -0.6340 oh         1 FJ6      -0.535100
      9 C09          4.1990     0.1020     1.3140 c3         1 FJ6       0.001600
     10 C10         -0.1340    -1.6900    -0.2990 cc         1 FJ6       0.380500
     11 C11          3.7880     1.5450     1.0160 c3         1 FJ6      -0.087600
     12 C12          3.9820    -0.2470     2.7870 c3         1 FJ6      -0.087600
     13 N13         -0.8900    -2.7520    -0.2680 nd         1 FJ6      -0.341300
     14 O14         -2.1850    -2.2990    -0.1850 os         1 FJ6      -0.054700
     15 C15         -2.1820    -0.9740    -0.1530 cd         1 FJ6       0.327900
     16 C16         -0.9090    -0.4940    -0.2210 cc         1 FJ6      -0.239000
     17 C17         -0.4670     0.9020    -0.2260 ca         1 FJ6      -0.038000
     18 C18         -0.8560     1.7840     0.7860 ca         1 FJ6      -0.068500
     19 C19         -0.4240     3.0970     0.7970 ca         1 FJ6      -0.174500
     20 C20          0.4250     3.5660    -0.2070 ca         1 FJ6       0.139100
     21 C21          0.8200     2.6990    -1.2240 ca         1 FJ6      -0.174500
     22 C22          0.3700     1.3870    -1.2260 ca         1 FJ6      -0.068500
     23 O23          0.8100     4.8510    -0.1130 os         1 FJ6      -0.341100
     24 C24          1.7220     5.3530    -1.0690 c3         1 FJ6       0.148900
     25 N25         -3.3650    -0.2840    -0.1350 ns         1 FJ6      -0.486400
     26 C26         -4.5960    -0.7560     0.2510 c          1 FJ6       0.643100
     27 O27         -4.7720    -1.8960     0.6270 o          1 FJ6      -0.538100
     28 C28         -5.6700     0.2590     0.1630 cx         1 FJ6      -0.254700
     29 C29         -6.7790     0.1930     1.1830 cx         1 FJ6      -0.092400
     30 C30         -7.0510    -0.2180    -0.2140 cx         1 FJ6      -0.092400
     31 H1           1.5660    -0.2740     1.1210 ha         1 FJ6       0.126000
     32 H2           3.9180    -3.2480    -1.9880 ha         1 FJ6       0.131000
     33 H3           1.8610    -3.9310    -2.6280 ho         1 FJ6       0.467000
     34 H4           5.9020    -1.1650    -0.0590 ho         1 FJ6       0.471000
     35 H5           5.2790     0.0490     1.1420 hc         1 FJ6       0.028700
     36 H6           2.7260     1.7070     1.2080 hc         1 FJ6       0.037533
     37 H7           4.3480     2.2420     1.6420 hc         1 FJ6       0.037533
     38 H8           3.9720     1.8040    -0.0270 hc         1 FJ6       0.037533
     39 H9           4.2910    -1.2700     3.0000 hc         1 FJ6       0.037533
     40 H10          4.5580     0.4200     3.4300 hc         1 FJ6       0.037533
     41 H11          2.9310    -0.1500     3.0680 hc         1 FJ6       0.037533
     42 H12         -1.4890     1.4360     1.5940 ha         1 FJ6       0.120000
     43 H13         -0.7330     3.7640     1.5910 ha         1 FJ6       0.123000
     44 H14          1.4730     3.0240    -2.0220 ha         1 FJ6       0.123000
     45 H15          0.6880     0.7290    -2.0250 ha         1 FJ6       0.120000
     46 H16          1.9170     6.3870    -0.7980 h1         1 FJ6       0.041367
     47 H17          2.6660     4.8020    -1.0600 h1         1 FJ6       0.041367
     48 H18          1.3090     5.3260    -2.0810 h1         1 FJ6       0.041367
     49 H19         -3.2870     0.6930    -0.3800 hn         1 FJ6       0.341500
     50 H20         -5.3830     1.2450    -0.1830 hc         1 FJ6       0.089700
     51 H21         -6.7080    -0.5770     1.9400 hc         1 FJ6       0.084950
     52 H22         -7.1680     1.1410     1.5310 hc         1 FJ6       0.084950
     53 H23         -7.6310     0.4390    -0.8480 hc         1 FJ6       0.084950
     54 H24         -7.1680    -1.2730    -0.4240 hc         1 FJ6       0.084950
@<TRIPOS>BOND
     1     1     2 ar  
     2     1     6 ar  
     3     1    10 1   
     4     2     3 ar  
     5     2    31 1   
     6     3     4 ar  
     7     3     9 1   
     8     4     5 ar  
     9     4     8 1   
    10     5     6 ar  
    11     5    32 1   
    12     6     7 1   
    13     7    33 1   
    14     8    34 1   
    15     9    11 1   
    16     9    12 1   
    17     9    35 1   
    18    10    13 2   
    19    10    16 1   
    20    11    36 1   
    21    11    37 1   
    22    11    38 1   
    23    12    39 1   
    24    12    40 1   
    25    12    41 1   
    26    13    14 1   
    27    14    15 1   
    28    15    16 2   
    29    15    25 1   
    30    16    17 1   
    31    17    18 ar  
    32    17    22 ar  
    33    18    19 ar  
    34    18    42 1   
    35    19    20 ar  
    36    19    43 1   
    37    20    21 ar  
    38    20    23 1   
    39    21    22 ar  
    40    21    44 1   
    41    22    45 1   
    42    23    24 1   
    43    24    46 1   
    44    24    47 1   
    45    24    48 1   
    46    25    26 1   
    47    25    49 1   
    48    26    27 2   
    49    26    28 1   
    50    28    29 1   
    51    28    30 1   
    52    28    50 1   
    53    29    30 1   
    54    29    51 1   
    55    29    52 1   
    56    30    53 1   
    57    30    54 1   
@<TRIPOS>SUBSTRUCTURE
     1 FJ6         1 TEMP              0 ****  ****    0 ROOT
