@<TRIPOS>MOLECULE
FJ7
   68    73     1     0     0
SMALL
bcc


@<TRIPOS>ATOM
      1 C01          3.6120     1.4840    -0.1460 ca         1 FJ7      -0.148000
      2 C02          3.9820     0.2520    -0.6910 ca         1 FJ7       0.101600
      3 C03          5.3060     0.1420    -1.1290 ca         1 FJ7       0.106900
      4 C04          6.2280     1.1580    -1.0090 ca         1 FJ7      -0.163000
      5 C05          5.8320     2.3710    -0.4560 ca         1 FJ7      -0.137000
      6 C06          4.5210     2.5300    -0.0380 ca         1 FJ7      -0.122000
      7 C09          1.6870    -0.5120    -0.8100 c6         1 FJ7       0.149300
      8 C10          0.8800    -1.7230    -1.2650 c6         1 FJ7       0.156800
      9 C12          2.5660    -3.1940    -0.5160 c6         1 FJ7       0.156800
     10 C13          3.4150    -2.0150    -0.0520 c6         1 FJ7       0.149300
     11 C14          0.6130    -2.9140     0.8700 c3         1 FJ7       0.227100
     12 C15         -0.8670    -2.6620     0.9220 ca         1 FJ7      -0.135300
     13 C16         -1.8080    -3.6720     0.6990 ca         1 FJ7       0.152100
     14 C17         -3.1680    -3.3620     0.7410 ca         1 FJ7      -0.227000
     15 C18         -3.5840    -2.0550     0.9600 ca         1 FJ7      -0.048000
     16 C19         -2.6670    -1.0310     1.1600 ca         1 FJ7      -0.099300
     17 C20         -1.3220    -1.3710     1.1540 ca         1 FJ7      -0.095000
     18 C21         -3.1450     0.4050     1.3350 c6         1 FJ7       0.288000
     19 C22         -2.0110     1.3810     1.3100 cc         1 FJ7      -0.113300
     20 C23         -1.6810     2.1280     0.2190 cd         1 FJ7      -0.107400
     21 C24         -2.4780     2.1100    -1.0410 c6         1 FJ7      -0.032200
     22 C25         -3.5060     0.9560    -1.0120 c6         1 FJ7       0.027500
     23 C27         -4.5750     1.2280    -2.0870 c          1 FJ7       0.936600
     24 C30         -0.5210     2.8850     0.5770 ca         1 FJ7      -0.094800
     25 C31         -0.2020     2.5390     1.9110 ca         1 FJ7      -0.055200
     26 C33          0.8830     3.1000     2.5810 ca         1 FJ7      -0.159000
     27 C34          1.6540     4.0210     1.8940 ca         1 FJ7      -0.127000
     28 C35          1.3550     4.3760     0.5690 ca         1 FJ7      -0.183000
     29 C36          0.2790     3.8160    -0.0930 ca         1 FJ7      -0.069000
     30 C38         -2.2370    -5.9720     0.2910 c3         1 FJ7       0.128700
     31 F07          5.6980    -1.0060    -1.7130 f          1 FJ7      -0.147900
     32 N08          3.1040    -0.8270    -0.8490 nh         1 FJ7      -0.627000
     33 N11          1.1370    -2.9290    -0.4950 n3         1 FJ7      -0.697600
     34 N26         -4.1070     0.7290     0.2920 n7         1 FJ7      -0.777200
     35 N32         -1.1270     1.6240     2.3300 na         1 FJ7      -0.176400
     36 O28         -5.7100     1.5680    -1.7020 o          1 FJ7      -0.830300
     37 O29         -4.1850     1.1300    -3.2690 o          1 FJ7      -0.830300
     38 O37         -1.3250    -4.9070     0.4610 os         1 FJ7      -0.313900
     39 H1           2.5980     1.6440     0.1990 ha         1 FJ7       0.155000
     40 H2           7.2380     1.0090    -1.3670 ha         1 FJ7       0.138000
     41 H3           6.5440     3.1790    -0.3650 ha         1 FJ7       0.126000
     42 H4           4.1920     3.4700     0.3850 ha         1 FJ7       0.136000
     43 H5           1.4860     0.3230    -1.4850 h1         1 FJ7       0.042950
     44 H6           1.3610    -0.1960     0.1940 h1         1 FJ7       0.042950
     45 H7          -0.1820    -1.4800    -1.2400 h1         1 FJ7       0.064950
     46 H8           1.1310    -1.9340    -2.3100 h1         1 FJ7       0.064950
     47 H9           2.8540    -3.4470    -1.5420 h1         1 FJ7       0.064950
     48 H10          2.7870    -4.0650     0.1050 h1         1 FJ7       0.064950
     49 H11          3.2490    -1.8170     1.0180 h1         1 FJ7       0.042950
     50 H12          4.4650    -2.2800    -0.1600 h1         1 FJ7       0.042950
     51 H13          1.0990    -2.1620     1.5070 h1         1 FJ7       0.030200
     52 H14          0.8530    -3.8830     1.3150 h1         1 FJ7       0.030200
     53 H15         -3.9200    -4.1250     0.5910 ha         1 FJ7       0.129000
     54 H16         -4.6440    -1.8370     0.9550 ha         1 FJ7       0.154000
     55 H17         -0.5730    -0.6040     1.3080 ha         1 FJ7       0.130000
     56 H18         -3.6740     0.4770     2.2930 h1         1 FJ7       0.047700
     57 H19         -2.9920     3.0710    -1.1650 hc         1 FJ7       0.058200
     58 H20         -1.8340     1.9990    -1.9170 hc         1 FJ7       0.058200
     59 H21         -2.9760     0.0350    -1.2810 h1         1 FJ7       0.052700
     60 H22          1.1170     2.8270     3.6030 ha         1 FJ7       0.120000
     61 H23          2.5040     4.4740     2.3880 ha         1 FJ7       0.114000
     62 H24          1.9810     5.0990     0.0600 ha         1 FJ7       0.118000
     63 H25          0.0590     4.0960    -1.1160 ha         1 FJ7       0.138000
     64 H26         -2.8630    -6.1200     1.1740 h1         1 FJ7       0.033700
     65 H27         -2.8840    -5.8240    -0.5780 h1         1 FJ7       0.033700
     66 H28         -1.6400    -6.8670     0.1320 h1         1 FJ7       0.033700
     67 H30         -4.6500     1.5390     0.5630 hn         1 FJ7       0.376800
     68 H32         -1.1610     1.2060     3.2450 hn         1 FJ7       0.290700
@<TRIPOS>BOND
     1     1     2 ar  
     2     1     6 ar  
     3     1    39 1   
     4     2     3 ar  
     5     2    32 1   
     6     3     4 ar  
     7     3    31 1   
     8     4     5 ar  
     9     4    40 1   
    10     5     6 ar  
    11     5    41 1   
    12     6    42 1   
    13     7     8 1   
    14     7    32 1   
    15     7    43 1   
    16     7    44 1   
    17     8    33 1   
    18     8    45 1   
    19     8    46 1   
    20     9    10 1   
    21     9    33 1   
    22     9    47 1   
    23     9    48 1   
    24    10    32 1   
    25    10    49 1   
    26    10    50 1   
    27    11    12 1   
    28    11    33 1   
    29    11    51 1   
    30    11    52 1   
    31    12    13 ar  
    32    12    17 ar  
    33    13    14 ar  
    34    13    38 1   
    35    14    15 ar  
    36    14    53 1   
    37    15    16 ar  
    38    15    54 1   
    39    16    17 ar  
    40    16    18 1   
    41    17    55 1   
    42    18    19 1   
    43    18    34 1   
    44    18    56 1   
    45    19    20 2   
    46    19    35 1   
    47    20    21 1   
    48    20    24 1   
    49    21    22 1   
    50    21    57 1   
    51    21    58 1   
    52    22    23 1   
    53    22    34 1   
    54    22    59 1   
    55    23    36 1   
    56    23    37 1   
    57    24    25 ar  
    58    24    29 ar  
    59    25    26 ar  
    60    25    35 1   
    61    26    27 ar  
    62    26    60 1   
    63    27    28 ar  
    64    27    61 1   
    65    28    29 ar  
    66    28    62 1   
    67    29    63 1   
    68    30    38 1   
    69    30    64 1   
    70    30    65 1   
    71    30    66 1   
    72    34    67 1   
    73    35    68 1   
@<TRIPOS>SUBSTRUCTURE
     1 FJ7         1 TEMP              0 ****  ****    0 ROOT
