@<TRIPOS>MOLECULE
FJ7
   68    73     1     0     0
SMALL
No Charge or Current Charge


@<TRIPOS>ATOM
      1 C01          3.7320     1.5130     0.0370 ca         1 FJ7      -0.130000
      2 C02          4.0330     0.3620    -0.7250 ca         1 FJ7       0.240000
      3 C03          5.2990     0.2950    -1.3700 ca         1 FJ7       0.142000
      4 C04          6.2240     1.3470    -1.2490 ca         1 FJ7      -0.145000
      5 C05          5.9050     2.4810    -0.4850 ca         1 FJ7      -0.119000
      6 C06          4.6600     2.5630     0.1580 ca         1 FJ7      -0.104000
      7 C09          1.6140    -0.3950    -0.8540 c6         1 FJ7       0.149300
      8 C10          0.7630    -1.5890    -1.4010 c6         1 FJ7       0.156800
      9 C12          2.4950    -3.1850    -0.8100 c6         1 FJ7       0.156800
     10 C13          3.4090    -2.0400    -0.2540 c6         1 FJ7       0.149300
     11 C14          0.5460    -2.9380     0.7140 c3         1 FJ7       0.227100
     12 C15         -0.9540    -2.6820     0.8720 ca         1 FJ7      -0.135300
     13 C16         -1.8970    -3.7320     0.8410 ca         1 FJ7       0.152100
     14 C17         -3.2720    -3.4320     0.9840 ca         1 FJ7      -0.209000
     15 C18         -3.6990    -2.1010     1.1420 ca         1 FJ7      -0.030000
     16 C19         -2.7640    -1.0490     1.1760 ca         1 FJ7      -0.099300
     17 C20         -1.3940    -1.3600     1.0590 ca         1 FJ7      -0.077000
     18 C21         -3.2570     0.4100     1.2980 c6         1 FJ7       0.288000
     19 C22         -2.1300     1.4200     1.3800 cc         1 FJ7      -0.113300
     20 C23         -1.6030     2.1210     0.3040 cd         1 FJ7      -0.107400
     21 C24         -2.2320     2.0300    -1.0700 c6         1 FJ7      -0.032200
     22 C25         -3.3030     0.8980    -1.1640 c6         1 FJ7       0.027500
     23 C27         -4.1680     1.0880    -2.4760 c          1 FJ7       0.726000
     24 C30         -0.4590     2.8830     0.7410 ca         1 FJ7      -0.094800
     25 C31         -0.3190     2.6260     2.0780 ca         1 FJ7      -0.055200
     26 C33          0.7150     3.1980     2.8290 ca         1 FJ7      -0.141000
     27 C34          1.6150     4.0600     2.1640 ca         1 FJ7      -0.109000
     28 C35          1.4640     4.3250     0.7800 ca         1 FJ7      -0.165000
     29 C36          0.4140     3.7300     0.0470 ca         1 FJ7      -0.051000
     30 C38         -2.3400    -6.1540     0.6200 c3         1 FJ7       0.151900
     31 F07          5.6370    -0.7750    -2.1320 f          1 FJ7      -0.183000
     32 N08          3.0820    -0.6940    -0.8290 nh         1 FJ7      -0.765400
     33 N11          1.0350    -2.8820    -0.6920 n3         1 FJ7      -0.697600
     34 N26         -4.0950     0.7690     0.1270 n7         1 FJ7      -0.832400
     35 N32         -1.3160     1.7520     2.4840 na         1 FJ7      -0.226700
     36 O28         -5.1890     1.7620    -2.3860 o          1 FJ7      -0.725000
     37 O29         -4.0450     0.2350    -3.3470 o          1 FJ7      -0.725000
     38 O37         -1.4470    -5.0290     0.6760 os         1 FJ7      -0.337100
     39 H1           2.7790     1.5940     0.5520 ha         1 FJ7       0.137000
     40 H2           7.1850     1.2810    -1.7510 ha         1 FJ7       0.120000
     41 H3           6.6220     3.2950    -0.3910 ha         1 FJ7       0.108000
     42 H4           4.4130     3.4390     0.7530 ha         1 FJ7       0.118000
     43 H5           1.4190     0.4840    -1.4850 h1         1 FJ7       0.042950
     44 H6           1.2750    -0.1440     0.1610 h1         1 FJ7       0.042950
     45 H7          -0.3030    -1.3250    -1.3580 h1         1 FJ7       0.064950
     46 H8           0.9980    -1.7030    -2.4700 h1         1 FJ7       0.064950
     47 H9           2.7540    -3.3400    -1.8680 h1         1 FJ7       0.064950
     48 H10          2.7400    -4.1230    -0.2910 h1         1 FJ7       0.064950
     49 H11          3.3090    -2.0030     0.8410 h1         1 FJ7       0.042950
     50 H12          4.4540    -2.3050    -0.4660 h1         1 FJ7       0.042950
     51 H13          1.0820    -2.2020     1.3300 h1         1 FJ7       0.030200
     52 H14          0.7830    -3.9200     1.1440 h1         1 FJ7       0.030200
     53 H15         -4.0250    -4.2140     0.9630 ha         1 FJ7       0.111000
     54 H16         -4.7610    -1.8820     1.2280 ha         1 FJ7       0.136000
     55 H17         -0.6510    -0.5710     1.0890 ha         1 FJ7       0.112000
     56 H18         -3.8770     0.4800     2.2040 h1         1 FJ7       0.047700
     57 H19         -2.7020     2.9940    -1.3090 hc         1 FJ7       0.058200
     58 H20         -1.4620     1.8700    -1.8360 hc         1 FJ7       0.058200
     59 H21         -2.7590    -0.0470    -1.3120 h1         1 FJ7       0.052700
     60 H22          0.8230     2.9860     3.8900 ha         1 FJ7       0.102000
     61 H23          2.4290     4.5210     2.7170 ha         1 FJ7       0.096000
     62 H24          2.1630     4.9890     0.2770 ha         1 FJ7       0.100000
     63 H25          0.2890     3.9200    -1.0160 ha         1 FJ7       0.120000
     64 H26         -2.9150    -6.2430     1.5500 h1         1 FJ7       0.033700
     65 H27         -3.0400    -6.0550    -0.2200 h1         1 FJ7       0.033700
     66 H28         -1.7720    -7.0830     0.4810 h1         1 FJ7       0.033700
     67 H30         -4.5340     1.6770     0.3140 hn         1 FJ7       0.432000
     68 H32         -1.4210     1.3850     3.4240 hn         1 FJ7       0.341000
@<TRIPOS>BOND
     1     1     2 ar  
     2     1     6 ar  
     3     1    39 1   
     4     2     3 ar  
     5     2    32 1   
     6     3     4 ar  
     7     3    31 1   
     8     4     5 ar  
     9     4    40 1   
    10     5     6 ar  
    11     5    41 1   
    12     6    42 1   
    13     7     8 1   
    14     7    32 1   
    15     7    43 1   
    16     7    44 1   
    17     8    33 1   
    18     8    45 1   
    19     8    46 1   
    20     9    10 1   
    21     9    33 1   
    22     9    47 1   
    23     9    48 1   
    24    10    32 1   
    25    10    49 1   
    26    10    50 1   
    27    11    12 1   
    28    11    33 1   
    29    11    51 1   
    30    11    52 1   
    31    12    13 ar  
    32    12    17 ar  
    33    13    14 ar  
    34    13    38 1   
    35    14    15 ar  
    36    14    53 1   
    37    15    16 ar  
    38    15    54 1   
    39    16    17 ar  
    40    16    18 1   
    41    17    55 1   
    42    18    19 1   
    43    18    34 1   
    44    18    56 1   
    45    19    20 2   
    46    19    35 1   
    47    20    21 1   
    48    20    24 1   
    49    21    22 1   
    50    21    57 1   
    51    21    58 1   
    52    22    23 1   
    53    22    34 1   
    54    22    59 1   
    55    23    36 1   
    56    23    37 1   
    57    24    25 ar  
    58    24    29 ar  
    59    25    26 ar  
    60    25    35 1   
    61    26    27 ar  
    62    26    60 1   
    63    27    28 ar  
    64    27    61 1   
    65    28    29 ar  
    66    28    62 1   
    67    29    63 1   
    68    30    38 1   
    69    30    64 1   
    70    30    65 1   
    71    30    66 1   
    72    34    67 1   
    73    35    68 1   
@<TRIPOS>SUBSTRUCTURE
     1 FJ7         1 TEMP              0 ****  ****    0 ROOT
