@<TRIPOS>MOLECULE
FJ8
   30    31     1     0     0
SMALL
No Charge or Current Charge


@<TRIPOS>ATOM
      1 CAE          4.0880    -0.4580     0.1970 cc         1 FJ8       0.507300
      2 CAF          3.0160    -1.4760     0.3760 c3         1 FJ8      -0.182700
      3 CAG          1.6750    -0.7980     0.5760 c          1 FJ8       0.627100
      4 CAK         -1.4500    -0.9150    -0.1310 ce         1 FJ8       0.378800
      5 CAL         -3.1050     0.9690    -0.5510 ca         1 FJ8      -0.079500
      6 CAM         -2.8340    -0.3470    -0.1120 ca         1 FJ8      -0.136900
      7 CAN         -3.8990    -1.1410     0.3570 ca         1 FJ8      -0.079500
      8 CAO         -5.2100    -0.6340     0.3870 ca         1 FJ8      -0.118000
      9 CAP         -5.4760     0.6750    -0.0530 ca         1 FJ8      -0.061300
     10 CAQ         -4.4170     1.4730    -0.5200 ca         1 FJ8      -0.118000
     11 CAR         -6.8940     1.2240    -0.0170 c3         1 FJ8      -0.049800
     12 NAA          5.7010     0.7740     0.4320 na         1 FJ8       0.115600
     13 NAB          5.1930     1.0530    -0.8130 nd         1 FJ8      -0.167800
     14 NAC          5.0020    -0.2010     1.1010 nd         1 FJ8      -0.507800
     15 NAD          4.1680     0.2630    -0.9540 nc         1 FJ8      -0.372000
     16 NAI          0.8310    -0.8110    -0.5330 ns         1 FJ8      -0.283900
     17 NAJ         -0.4280    -0.2330    -0.5510 n2         1 FJ8      -0.409300
     18 OAH          1.3630    -0.2830     1.6430 o          1 FJ8      -0.527100
     19 H1           2.9930    -2.1160    -0.5120 hc         1 FJ8       0.084200
     20 H2           3.2400    -2.0800     1.2620 hc         1 FJ8       0.084200
     21 H3          -1.3360    -1.9400     0.2290 h4         1 FJ8      -0.018200
     22 H5          -3.7120    -2.1570     0.7010 ha         1 FJ8       0.122500
     23 H6          -6.0190    -1.2620     0.7540 ha         1 FJ8       0.113500
     24 H7          -4.6080     2.4890    -0.8600 ha         1 FJ8       0.113500
     25 H8          -7.0980     1.7150     0.9410 hc         1 FJ8       0.044033
     26 H9          -7.0580     1.9600    -0.8130 hc         1 FJ8       0.044033
     27 H10         -7.6360     0.4270    -0.1500 hc         1 FJ8       0.044033
     28 H11          6.5190     1.2510     0.8110 hn         1 FJ8       0.408000
     29 H12          1.2010    -1.2630    -1.3650 hn         1 FJ8       0.302500
     30 H4          -2.3030     1.6060    -0.9170 ha         1 FJ8       0.122500
@<TRIPOS>BOND
     1     1     2 1   
     2     1    14 2   
     3     1    15 1   
     4     2     3 1   
     5     2    19 1   
     6     2    20 1   
     7     3    16 1   
     8     3    18 2   
     9     4     6 1   
    10     4    17 2   
    11     4    21 1   
    12     5     6 ar  
    13     5    10 ar  
    14     5    30 1   
    15     6     7 ar  
    16     7     8 ar  
    17     7    22 1   
    18     8     9 ar  
    19     8    23 1   
    20     9    10 ar  
    21     9    11 1   
    22    10    24 1   
    23    11    25 1   
    24    11    26 1   
    25    11    27 1   
    26    12    13 1   
    27    12    14 1   
    28    12    28 1   
    29    13    15 2   
    30    16    17 1   
    31    16    29 1   
@<TRIPOS>SUBSTRUCTURE
     1 FJ8         1 TEMP              0 ****  ****    0 ROOT
