@<TRIPOS>MOLECULE
FJ8
   30    31     1     0     0
SMALL
bcc


@<TRIPOS>ATOM
      1 CAE          4.2550    -0.3910     0.0470 cc         1 FJ8       0.507300
      2 CAF          3.0080    -1.1720     0.2100 c3         1 FJ8      -0.182700
      3 CAG          1.7870    -0.2700     0.1710 c          1 FJ8       0.694100
      4 CAK         -1.6060    -1.0270    -0.0440 ce         1 FJ8       0.378800
      5 CAL         -3.1460     0.9480     0.0380 ca         1 FJ8      -0.097500
      6 CAM         -2.9380    -0.4320    -0.0480 ca         1 FJ8      -0.136900
      7 CAN         -4.0470    -1.2680    -0.1390 ca         1 FJ8      -0.097500
      8 CAO         -5.3320    -0.7450    -0.1400 ca         1 FJ8      -0.136000
      9 CAP         -5.5460     0.6270    -0.0500 ca         1 FJ8      -0.061300
     10 CAQ         -4.4280     1.4620     0.0360 ca         1 FJ8      -0.136000
     11 CAR         -6.9320     1.2000    -0.0280 c3         1 FJ8      -0.049800
     12 NAA          5.9680     0.6440     0.4060 na         1 FJ8       0.165900
     13 NAB          5.8180     0.6830    -0.8810 nd         1 FJ8      -0.167800
     14 NAC          5.0320    -0.0100     1.0400 nd         1 FJ8      -0.507800
     15 NAD          4.7320     0.0290    -1.1360 nc         1 FJ8      -0.372000
     16 NAI          0.6250    -0.9590     0.0520 ns         1 FJ8      -0.350900
     17 NAJ         -0.5570    -0.3160     0.0530 n2         1 FJ8      -0.409300
     18 OAH          1.8540     0.9380     0.2550 o          1 FJ8      -0.527100
     19 H1           2.9410    -1.9370    -0.5670 hc         1 FJ8       0.084200
     20 H2           3.0240    -1.6970     1.1690 hc         1 FJ8       0.084200
     21 H3          -1.5610    -2.1170    -0.1230 h4         1 FJ8      -0.018200
     22 H5          -3.9080    -2.3410    -0.2090 ha         1 FJ8       0.140500
     23 H6          -6.1790    -1.4160    -0.2110 ha         1 FJ8       0.131500
     24 H7          -4.5680     2.5350     0.1020 ha         1 FJ8       0.131500
     25 H8          -7.1790     1.5830     0.9640 hc         1 FJ8       0.044033
     26 H9          -7.0310     2.0320    -0.7250 hc         1 FJ8       0.044033
     27 H10         -7.6790     0.4510    -0.2860 hc         1 FJ8       0.044033
     28 H11          6.7520     1.0790     0.8740 hn         1 FJ8       0.357700
     29 H12          0.6480    -1.9700    -0.0190 hn         1 FJ8       0.302500
     30 H4          -2.2990     1.6180     0.1060 ha         1 FJ8       0.140500
@<TRIPOS>BOND
     1     1     2 1   
     2     1    14 2   
     3     1    15 1   
     4     2     3 1   
     5     2    19 1   
     6     2    20 1   
     7     3    16 1   
     8     3    18 2   
     9     4     6 1   
    10     4    17 2   
    11     4    21 1   
    12     5     6 ar  
    13     5    10 ar  
    14     5    30 1   
    15     6     7 ar  
    16     7     8 ar  
    17     7    22 1   
    18     8     9 ar  
    19     8    23 1   
    20     9    10 ar  
    21     9    11 1   
    22    10    24 1   
    23    11    25 1   
    24    11    26 1   
    25    11    27 1   
    26    12    13 1   
    27    12    14 1   
    28    12    28 1   
    29    13    15 2   
    30    16    17 1   
    31    16    29 1   
@<TRIPOS>SUBSTRUCTURE
     1 FJ8         1 TEMP              0 ****  ****    0 ROOT
