@<TRIPOS>MOLECULE
FJ9
   49    53     1     0     0
SMALL
No Charge or Current Charge


@<TRIPOS>ATOM
      1 C4          73.6310    -9.0010    21.5870 ca         1 FJ9      -0.127000
      2 C5          74.0760    -7.6700    21.5920 ca         1 FJ9      -0.081000
      3 C6          74.9790    -7.2660    20.5980 ca         1 FJ9      -0.098000
      4 C7          73.6590   -11.3420    20.5310 cp         1 FJ9      -0.108500
      5 C8          73.8280   -12.1310    19.3600 ca         1 FJ9      -0.140000
      6 C15         77.5940    -8.7910    16.5070 ca         1 FJ9      -0.020000
      7 C17         77.7190   -10.0230    15.8160 ca         1 FJ9      -0.164000
      8 C20         79.1280    -7.8210    14.9130 ca         1 FJ9       0.034100
      9 C21         78.3170    -7.6630    16.0430 ca         1 FJ9      -0.109000
     10 C26         81.4990    -5.4540    12.4720 c6         1 FJ9       0.186800
     11 O16         76.8280    -6.6060    18.4670 o          1 FJ9      -0.583100
     12 C1          75.4080    -8.1950    19.6250 ca         1 FJ9       0.292500
     13 C3          74.0960    -9.9000    20.5950 cp         1 FJ9       0.404500
     14 C12         73.0610   -12.0130    21.6320 ca         1 FJ9      -0.140000
     15 C11         72.6730   -13.3600    21.5220 ca         1 FJ9       0.331900
     16 N10         72.8400   -14.0880    20.3950 nb         1 FJ9      -0.655000
     17 C9          73.4110   -13.4730    19.3350 ca         1 FJ9       0.331900
     18 N2          74.9610    -9.4870    19.6380 nb         1 FJ9      -0.684000
     19 N14         76.7370    -8.7620    17.6420 ns         1 FJ9      -0.125000
     20 O24         79.8890    -6.8680    14.3240 os         1 FJ9      -0.303700
     21 C23         80.4510    -7.5870    13.2780 cc         1 FJ9       0.767500
     22 N22         80.1050    -8.8780    13.1790 nd         1 FJ9      -0.650100
     23 C19         79.2460    -9.0060    14.2500 ca         1 FJ9       0.074400
     24 C18         78.5480   -10.1410    14.6790 ca         1 FJ9      -0.043000
     25 N25         81.3140    -6.9410    12.4220 nh         1 FJ9      -0.731600
     26 C30         81.7920    -7.5920    11.1590 c6         1 FJ9       0.186800
     27 C29         83.1810    -7.0540    10.7080 c6         1 FJ9       0.142600
     28 O28         83.1840    -5.6080    10.6680 os         1 FJ9      -0.444000
     29 C27         82.9020    -5.0170    11.9570 c6         1 FJ9       0.142600
     30 H1          72.9210    -9.3260    22.3400 ha         1 FJ9       0.131000
     31 H2          73.7270    -6.9680    22.3470 ha         1 FJ9       0.129000
     32 H3          75.3410    -6.2410    20.5760 ha         1 FJ9       0.153000
     33 H4          74.2750   -11.7110    18.4630 ha         1 FJ9       0.129000
     34 H5          77.1700   -10.8970    16.1610 ha         1 FJ9       0.115000
     35 H6          78.2650    -6.6930    16.5260 ha         1 FJ9       0.164000
     36 H8          81.3820    -5.0750    13.4970 h1         1 FJ9       0.064950
     37 H9          72.9030   -11.5110    22.5810 ha         1 FJ9       0.129000
     38 H10         72.2170   -13.8750    22.3670 h4         1 FJ9       0.022100
     39 H11         73.5380   -14.0750    18.4360 h4         1 FJ9       0.022100
     40 H12         76.2890    -9.6470    17.8450 hn         1 FJ9       0.182000
     41 H13         78.6440   -11.0850    14.1480 ha         1 FJ9       0.133000
     42 H14         81.0650    -7.4160    10.3530 h1         1 FJ9       0.064950
     43 H15         81.8750    -8.6810    11.2830 h1         1 FJ9       0.064950
     44 H16         83.9580    -7.3980    11.4050 h1         1 FJ9       0.057450
     45 H17         83.4240    -7.4430     9.7090 h1         1 FJ9       0.057450
     46 H18         83.6750    -5.3290    12.6740 h1         1 FJ9       0.057450
     47 H19         82.9420    -3.9220    11.8700 h1         1 FJ9       0.057450
     48 C13         76.3900    -7.7540    18.5370 c          1 FJ9       0.513600
     49 H7          80.7290    -4.9640    11.8590 h1         1 FJ9       0.064950
@<TRIPOS>BOND
     1     1     2 ar  
     2     1    13 ar  
     3     1    30 1   
     4     2     3 ar  
     5     2    31 1   
     6     3    12 ar  
     7     3    32 1   
     8     4     5 ar  
     9     4    13 1   
    10     4    14 ar  
    11     5    17 ar  
    12     5    33 1   
    13     6     7 ar  
    14     6     9 ar  
    15     6    19 1   
    16     7    24 ar  
    17     7    34 1   
    18     8     9 ar  
    19     8    20 1   
    20     8    23 ar  
    21     9    35 1   
    22    10    25 1   
    23    10    29 1   
    24    10    36 1   
    25    10    49 1   
    26    11    48 2   
    27    12    18 ar  
    28    12    48 1   
    29    13    18 ar  
    30    14    15 ar  
    31    14    37 1   
    32    15    16 ar  
    33    15    38 1   
    34    16    17 ar  
    35    17    39 1   
    36    19    40 1   
    37    19    48 1   
    38    20    21 1   
    39    21    22 2   
    40    21    25 1   
    41    22    23 1   
    42    23    24 ar  
    43    24    41 1   
    44    25    26 1   
    45    26    27 1   
    46    26    42 1   
    47    26    43 1   
    48    27    28 1   
    49    27    44 1   
    50    27    45 1   
    51    28    29 1   
    52    29    46 1   
    53    29    47 1   
@<TRIPOS>SUBSTRUCTURE
     1 FJ9         1 TEMP              0 ****  ****    0 ROOT
