@<TRIPOS>MOLECULE
FJ9
   49    53     1     0     0
SMALL
bcc


@<TRIPOS>ATOM
      1 C4          73.7730    -9.0030    21.5030 ca         1 FJ9      -0.210300
      2 C5          74.2330    -7.6990    21.5190 ca         1 FJ9      -0.099000
      3 C6          75.1120    -7.2750    20.5350 ca         1 FJ9      -0.181300
      4 C7          73.7510   -11.2610    20.4010 cp         1 FJ9      -0.108500
      5 C8          73.7490   -11.9330    19.1810 ca         1 FJ9      -0.223300
      6 C15         77.5870    -8.8080    16.5250 ca         1 FJ9       0.072600
      7 C17         77.7400   -10.0440    15.8780 ca         1 FJ9      -0.182000
      8 C20         79.0650    -7.8810    14.9620 ca         1 FJ9       0.034100
      9 C21         78.2660    -7.6760    16.0610 ca         1 FJ9      -0.127000
     10 C26         81.2850    -5.5290    12.4540 c6         1 FJ9       0.186800
     11 O16         76.8860    -6.6540    18.4210 o          1 FJ9      -0.583100
     12 C1          75.4860    -8.1940    19.5650 ca         1 FJ9       0.357800
     13 C3          74.2070    -9.8580    20.4900 cp         1 FJ9       0.469800
     14 C12         73.3140   -11.9640    21.5200 ca         1 FJ9      -0.223300
     15 C11         72.9000   -13.2790    21.3690 ca         1 FJ9       0.397200
     16 N10         72.8890   -13.9170    20.2060 nb         1 FJ9      -0.655000
     17 C9          73.3080   -13.2450    19.1380 ca         1 FJ9       0.397200
     18 N2          75.0420    -9.4420    19.5470 nb         1 FJ9      -0.684000
     19 N14         76.7300    -8.7920    17.6290 ns         1 FJ9      -0.451100
     20 O24         79.8290    -6.9600    14.3090 os         1 FJ9      -0.303700
     21 C23         80.4180    -7.6520    13.3050 cc         1 FJ9       0.767500
     22 N22         80.1050    -8.9100    13.2420 nd         1 FJ9      -0.650100
     23 C19         79.2380    -9.0910    14.3020 ca         1 FJ9       0.074400
     24 C18         78.5570   -10.2050    14.7710 ca         1 FJ9      -0.061000
     25 N25         81.2710    -6.9840    12.5180 nh         1 FJ9      -0.731600
     26 C30         81.7850    -7.6510    11.3320 c6         1 FJ9       0.186800
     27 C29         83.1380    -7.0680    10.9730 c6         1 FJ9       0.119400
     28 O28         83.0790    -5.6670    10.8310 os         1 FJ9      -0.397600
     29 C27         82.6650    -5.0600    12.0330 c6         1 FJ9       0.119400
     30 H1          73.0760    -9.3420    22.2560 ha         1 FJ9       0.149000
     31 H2          73.9050    -7.0160    22.2910 ha         1 FJ9       0.147000
     32 H3          75.4930    -6.2640    20.5190 ha         1 FJ9       0.171000
     33 H4          74.0720   -11.4440    18.2730 ha         1 FJ9       0.147000
     34 H5          77.1990   -10.9030    16.2580 ha         1 FJ9       0.133000
     35 H6          78.1750    -6.7070    16.5260 ha         1 FJ9       0.182000
     36 H8          81.0530    -5.0990    13.4260 h1         1 FJ9       0.064950
     37 H9          73.3090   -11.5190    22.5060 ha         1 FJ9       0.147000
     38 H10         72.5670   -13.8390    22.2350 h4         1 FJ9       0.022100
     39 H11         73.2900   -13.7770    18.1940 h4         1 FJ9       0.022100
     40 H12         76.2630    -9.6640    17.8490 hn         1 FJ9       0.348500
     41 H13         78.6550   -11.1720    14.2950 ha         1 FJ9       0.151000
     42 H14         81.0830    -7.5340    10.4990 h1         1 FJ9       0.064950
     43 H15         81.8920    -8.7160    11.5320 h1         1 FJ9       0.064950
     44 H16         83.8710    -7.3460    11.7430 h1         1 FJ9       0.057450
     45 H17         83.4720    -7.4850    10.0220 h1         1 FJ9       0.057450
     46 H18         83.3830    -5.2720    12.8380 h1         1 FJ9       0.057450
     47 H19         82.6480    -3.9820    11.8720 h1         1 FJ9       0.057450
     48 C13         76.4430    -7.7890    18.4790 c          1 FJ9       0.580600
     49 H7          80.5310    -5.1750    11.7410 h1         1 FJ9       0.064950
@<TRIPOS>BOND
     1     1     2 ar  
     2     1    13 ar  
     3     1    30 1   
     4     2     3 ar  
     5     2    31 1   
     6     3    12 ar  
     7     3    32 1   
     8     4     5 ar  
     9     4    13 1   
    10     4    14 ar  
    11     5    17 ar  
    12     5    33 1   
    13     6     7 ar  
    14     6     9 ar  
    15     6    19 1   
    16     7    24 ar  
    17     7    34 1   
    18     8     9 ar  
    19     8    20 1   
    20     8    23 ar  
    21     9    35 1   
    22    10    25 1   
    23    10    29 1   
    24    10    36 1   
    25    10    49 1   
    26    11    48 2   
    27    12    18 ar  
    28    12    48 1   
    29    13    18 ar  
    30    14    15 ar  
    31    14    37 1   
    32    15    16 ar  
    33    15    38 1   
    34    16    17 ar  
    35    17    39 1   
    36    19    40 1   
    37    19    48 1   
    38    20    21 1   
    39    21    22 2   
    40    21    25 1   
    41    22    23 1   
    42    23    24 ar  
    43    24    41 1   
    44    25    26 1   
    45    26    27 1   
    46    26    42 1   
    47    26    43 1   
    48    27    28 1   
    49    27    44 1   
    50    27    45 1   
    51    28    29 1   
    52    29    46 1   
    53    29    47 1   
@<TRIPOS>SUBSTRUCTURE
     1 FJ9         1 TEMP              0 ****  ****    0 ROOT
