@<TRIPOS>MOLECULE
FJA
   59    61     1     0     0
SMALL
bcc


@<TRIPOS>ATOM
      1 CAA         -0.6400     2.2950     0.2350 c3         1 FJA      -0.026700
      2 CAB         -1.2440     1.2740    -0.7500 c5         1 FJA      -0.029500
      3 CAC         -1.5300    -0.1130    -0.2170 c2         1 FJA      -0.099400
      4 CAD         -0.7190    -1.0080     0.3380 c2         1 FJA      -0.125200
      5 CAE          0.7370    -1.0400     0.7140 c5         1 FJA       0.059400
      6 CAF          1.8000    -0.1720     0.0240 c2         1 FJA      -0.080400
      7 CAG          1.7760     1.2760    -0.3990 c3         1 FJA       0.178300
      8 CAH          0.9110     2.3120     0.3470 c3         1 FJA       0.137100
      9 CAI         -2.6000     1.7590    -1.2980 c5         1 FJA      -0.081400
     10 CAJ         -3.3700     0.4840    -1.6210 c5         1 FJA      -0.070400
     11 CAK         -2.9880    -0.4630    -0.4810 c5         1 FJA      -0.029500
     12 CAL          1.2630    -2.4620     0.3930 c5         1 FJA       0.141100
     13 CAM          2.7730    -2.2930     0.3480 c5         1 FJA      -0.084200
     14 CAN          2.9290    -0.8810    -0.1340 c2         1 FJA      -0.103400
     15 CAO          0.8210    -0.8540     2.2440 c3         1 FJA      -0.089100
     16 CAP         -3.8370    -0.2570     0.7660 c3         1 FJA       0.137400
     17 CAQ         -1.3490     2.2810     1.5890 c3         1 FJA      -0.074100
     18 OAR          1.2920     2.3310     1.7060 oh         1 FJA      -0.589800
     19 OAS          1.5860     1.3280    -1.8040 oh         1 FJA      -0.578800
     20 OAT         -5.1650    -0.6400     0.4990 os         1 FJA      -0.410600
     21 CAU          4.2370    -0.4470    -0.7310 c3         1 FJA      -0.013500
     22 CAV          5.4250    -0.9430     0.0940 c3         1 FJA      -0.085100
     23 CAW          4.3380    -0.9320    -2.1790 c3         1 FJA      -0.085100
     24 OAX          0.7630    -2.8520    -0.8670 oh         1 FJA      -0.579800
     25 CAY         -6.0130    -0.4220     1.5960 c3         1 FJA       0.124700
     26 HAA         -0.8910     3.2650    -0.2070 hc         1 FJA       0.036700
     27 HAB         -0.5670     1.1790    -1.5980 hc         1 FJA       0.083700
     28 HAD         -1.2060    -1.9380     0.6320 ha         1 FJA       0.114000
     29 HAG          2.7930     1.6450    -0.1920 h1         1 FJA       0.009700
     30 HAH          1.2220     3.2640    -0.1120 h1         1 FJA       0.005700
     31 HAI         -3.1360     2.3420    -0.5440 hc         1 FJA       0.039200
     32 HAIA        -2.4730     2.4120    -2.1630 hc         1 FJA       0.039200
     33 HAJ         -4.4460     0.6380    -1.7120 hc         1 FJA       0.052200
     34 HAJA        -3.0220     0.0680    -2.5710 hc         1 FJA       0.052200
     35 HAK         -3.0840    -1.5120    -0.7750 hc         1 FJA       0.069700
     36 HAL          0.9440    -3.1710     1.1700 h1         1 FJA       0.035700
     37 HAM          3.2180    -2.4210     1.3410 hc         1 FJA       0.054200
     38 HAMA         3.2580    -3.0340    -0.2960 hc         1 FJA       0.054200
     39 HAO          0.1350    -1.5340     2.7520 hc         1 FJA       0.042367
     40 HAOA         1.8290    -1.0570     2.6140 hc         1 FJA       0.042367
     41 HAOB         0.5640     0.1630     2.5270 hc         1 FJA       0.042367
     42 HAP         -3.4230    -0.8530     1.5920 h1         1 FJA       0.022700
     43 HAPA        -3.8010     0.7930     1.0920 h1         1 FJA       0.022700
     44 HAQ         -1.1880     1.3580     2.1430 hc         1 FJA       0.036033
     45 HAQA        -1.0340     3.1140     2.2150 hc         1 FJA       0.036033
     46 HAQB        -2.4250     2.3900     1.4450 hc         1 FJA       0.036033
     47 HOAR         2.2480     2.4360     1.7520 ho         1 FJA       0.401000
     48 HOAS         1.7170     2.2400    -2.0880 ho         1 FJA       0.396000
     49 H24          4.2920     0.6450    -0.7520 hc         1 FJA       0.045700
     50 HAV          6.3580    -0.5420    -0.3060 hc         1 FJA       0.035200
     51 HAVA         5.3490    -0.6290     1.1370 hc         1 FJA       0.035200
     52 HAVB         5.5040    -2.0310     0.0770 hc         1 FJA       0.035200
     53 HAW          3.5340    -0.5110    -2.7820 hc         1 FJA       0.035200
     54 HAWA         5.2900    -0.6330    -2.6220 hc         1 FJA       0.035200
     55 H30          4.2730    -2.0210    -2.2420 hc         1 FJA       0.035200
     56 HOAX         1.1570    -3.7000    -1.0900 ho         1 FJA       0.396000
     57 HAY         -7.0150    -0.7510     1.3230 h1         1 FJA       0.025700
     58 HAYA        -5.6950    -0.9860     2.4820 h1         1 FJA       0.025700
     59 HAYB        -6.0600     0.6370     1.8760 h1         1 FJA       0.025700
@<TRIPOS>BOND
     1     1     2 1   
     2     1     8 1   
     3     1    17 1   
     4     1    26 1   
     5     2     3 1   
     6     2     9 1   
     7     2    27 1   
     8     3     4 2   
     9     3    11 1   
    10     4     5 1   
    11     4    28 1   
    12     5     6 1   
    13     5    12 1   
    14     5    15 1   
    15     6     7 1   
    16     6    14 2   
    17     7     8 1   
    18     7    19 1   
    19     7    29 1   
    20     8    18 1   
    21     8    30 1   
    22     9    10 1   
    23     9    31 1   
    24     9    32 1   
    25    10    11 1   
    26    10    33 1   
    27    10    34 1   
    28    11    16 1   
    29    11    35 1   
    30    12    13 1   
    31    12    24 1   
    32    12    36 1   
    33    13    14 1   
    34    13    37 1   
    35    13    38 1   
    36    14    21 1   
    37    15    39 1   
    38    15    40 1   
    39    15    41 1   
    40    16    20 1   
    41    16    42 1   
    42    16    43 1   
    43    17    44 1   
    44    17    45 1   
    45    17    46 1   
    46    18    47 1   
    47    19    48 1   
    48    20    25 1   
    49    21    22 1   
    50    21    23 1   
    51    21    49 1   
    52    22    50 1   
    53    22    51 1   
    54    22    52 1   
    55    23    53 1   
    56    23    54 1   
    57    23    55 1   
    58    24    56 1   
    59    25    57 1   
    60    25    58 1   
    61    25    59 1   
@<TRIPOS>SUBSTRUCTURE
     1 FJA         1 TEMP              0 ****  ****    0 ROOT
