@<TRIPOS>MOLECULE
FJA
   59    61     1     0     0
SMALL
No Charge or Current Charge


@<TRIPOS>ATOM
      1 CAA         -0.6320     2.1880    -0.0400 c3         1 FJA      -0.026700
      2 CAB         -1.0220     0.7830    -0.6220 c5         1 FJA      -0.029500
      3 CAC         -1.3760    -0.2510     0.4380 c2         1 FJA      -0.099400
      4 CAD         -0.5360    -1.0060     1.1810 c2         1 FJA      -0.175200
      5 CAE          1.0080    -1.1050     1.0720 c5         1 FJA       0.059400
      6 CAF          1.8830    -0.0890     0.2840 c2         1 FJA      -0.080400
      7 CAG          1.8600     1.4540     0.4410 c3         1 FJA       0.201500
      8 CAH          0.5670     2.1600     0.9640 c3         1 FJA       0.160300
      9 CAI         -2.2310     0.7800    -1.6240 c5         1 FJA      -0.081400
     10 CAJ         -2.9170    -0.5860    -1.3440 c5         1 FJA      -0.070400
     11 CAK         -2.8190    -0.6850     0.2050 c5         1 FJA      -0.029500
     12 CAL          1.2340    -2.4480     0.2220 c5         1 FJA       0.164300
     13 CAM          2.7100    -2.2770    -0.2020 c5         1 FJA      -0.084200
     14 CAN          2.8800    -0.7730    -0.3320 c2         1 FJA      -0.103400
     15 CAO          1.5950    -1.2730     2.5050 c3         1 FJA      -0.089100
     16 CAP         -3.8710     0.1390     0.9930 c3         1 FJA       0.160600
     17 CAQ         -1.7950     3.0140     0.5840 c3         1 FJA      -0.074100
     18 OAR          0.1650     1.6350     2.2290 oh         1 FJA      -0.652000
     19 OAS          2.2060     2.0860    -0.8040 oh         1 FJA      -0.641000
     20 OAT         -5.1620    -0.4660     0.7950 os         1 FJA      -0.457000
     21 CAU          4.1540    -0.2230    -0.9830 c3         1 FJA      -0.013500
     22 CAV          5.4270    -0.9680    -0.5180 c3         1 FJA      -0.085100
     23 CAW          4.0310    -0.2280    -2.5220 c3         1 FJA      -0.085100
     24 OAX          0.4020    -2.6250    -0.9550 oh         1 FJA      -0.642000
     25 CAY         -6.2400     0.2050     1.4680 c3         1 FJA       0.147900
     26 HAA         -0.2980     2.7850    -0.8960 hc         1 FJA       0.036700
     27 HAB         -0.1510     0.4270    -1.1810 hc         1 FJA       0.083700
     28 HAD         -1.0050    -1.7850     1.7840 ha         1 FJA       0.164000
     29 HAG          2.6480     1.6900     1.1690 h1         1 FJA       0.009700
     30 HAH          0.8480     3.2090     1.1260 h1         1 FJA       0.005700
     31 HAI         -2.9420     1.5930    -1.4590 hc         1 FJA       0.039200
     32 HAIA        -1.9010     0.8680    -2.6650 hc         1 FJA       0.039200
     33 HAJ         -3.9480    -0.6260    -1.7120 hc         1 FJA       0.052200
     34 HAJA        -2.3680    -1.4050    -1.8230 hc         1 FJA       0.052200
     35 HAK         -2.9630    -1.7240     0.5210 hc         1 FJA       0.069700
     36 HAL          1.1210    -3.3330     0.8650 h1         1 FJA       0.035700
     37 HAM          3.3940    -2.6860     0.5500 hc         1 FJA       0.054200
     38 HAMA         2.9270    -2.7960    -1.1430 hc         1 FJA       0.054200
     39 HAO          1.1400    -2.1270     3.0220 hc         1 FJA       0.042367
     40 HAOA         2.6780    -1.4460     2.4880 hc         1 FJA       0.042367
     41 HAOB         1.4280    -0.3910     3.1300 hc         1 FJA       0.042367
     42 HAP         -3.6040     0.1370     2.0580 h1         1 FJA       0.022700
     43 HAPA        -3.8810     1.1760     0.6390 h1         1 FJA       0.022700
     44 HAQ         -2.2580     2.4840     1.4220 hc         1 FJA       0.036033
     45 HAQA        -1.4170     3.9690     0.9680 hc         1 FJA       0.036033
     46 HAQB        -2.5690     3.2590    -0.1500 hc         1 FJA       0.036033
     47 HOAR        -0.0610     0.6990     2.0390 ho         1 FJA       0.440000
     48 HOAS         2.4020     3.0250    -0.6050 ho         1 FJA       0.435000
     49 H24          4.3130     0.8150    -0.6760 hc         1 FJA       0.045700
     50 HAV          6.3250    -0.4780    -0.9140 hc         1 FJA       0.035200
     51 HAVA         5.4950    -0.9660     0.5760 hc         1 FJA       0.035200
     52 HAVB         5.4310    -2.0080    -0.8640 hc         1 FJA       0.035200
     53 HAW          3.1480     0.3380    -2.8410 hc         1 FJA       0.035200
     54 HAWA         4.9140     0.2320    -2.9830 hc         1 FJA       0.035200
     55 H30          3.9370    -1.2510    -2.9040 hc         1 FJA       0.035200
     56 HOAX         0.7010    -3.4510    -1.3910 ho         1 FJA       0.435000
     57 HAY         -7.1890    -0.3100     1.2740 h1         1 FJA       0.025700
     58 HAYA        -6.0730     0.2180     2.5540 h1         1 FJA       0.025700
     59 HAYB        -6.3340     1.2410     1.1180 h1         1 FJA       0.025700
@<TRIPOS>BOND
     1     1     2 1   
     2     1     8 1   
     3     1    17 1   
     4     1    26 1   
     5     2     3 1   
     6     2     9 1   
     7     2    27 1   
     8     3     4 2   
     9     3    11 1   
    10     4     5 1   
    11     4    28 1   
    12     5     6 1   
    13     5    12 1   
    14     5    15 1   
    15     6     7 1   
    16     6    14 2   
    17     7     8 1   
    18     7    19 1   
    19     7    29 1   
    20     8    18 1   
    21     8    30 1   
    22     9    10 1   
    23     9    31 1   
    24     9    32 1   
    25    10    11 1   
    26    10    33 1   
    27    10    34 1   
    28    11    16 1   
    29    11    35 1   
    30    12    13 1   
    31    12    24 1   
    32    12    36 1   
    33    13    14 1   
    34    13    37 1   
    35    13    38 1   
    36    14    21 1   
    37    15    39 1   
    38    15    40 1   
    39    15    41 1   
    40    16    20 1   
    41    16    42 1   
    42    16    43 1   
    43    17    44 1   
    44    17    45 1   
    45    17    46 1   
    46    18    47 1   
    47    19    48 1   
    48    20    25 1   
    49    21    22 1   
    50    21    23 1   
    51    21    49 1   
    52    22    50 1   
    53    22    51 1   
    54    22    52 1   
    55    23    53 1   
    56    23    54 1   
    57    23    55 1   
    58    24    56 1   
    59    25    57 1   
    60    25    58 1   
    61    25    59 1   
@<TRIPOS>SUBSTRUCTURE
     1 FJA         1 TEMP              0 ****  ****    0 ROOT
