@<TRIPOS>MOLECULE
FJB
   43    44     1     0     0
SMALL
No Charge or Current Charge


@<TRIPOS>ATOM
      1 N            1.5700     0.3880     0.0930 ns         1 FJB      -0.498900
      2 CA           2.9670     0.5040    -0.4180 c3         1 FJB       0.079400
      3 C            3.8750     1.2370     0.5940 c          1 FJB       0.598100
      4 O            3.5370     1.5000     1.7430 o          1 FJB      -0.509100
      5 CAA         -6.5520     0.5910    -0.1790 ca         1 FJB      -0.107000
      6 CAJ          3.5760    -0.8200    -0.8080 cc         1 FJB       0.438300
      7 CAM          0.5940     1.3360    -0.0900 c          1 FJB       0.615100
      8 CAO         -0.7640     1.0130     0.5410 c3         1 FJB      -0.148400
      9 CAP         -1.8120     0.6230    -0.5300 c3         1 FJB      -0.066400
     10 CAQ         -3.1940     0.2890     0.0740 c3         1 FJB      -0.077400
     11 CAR         -4.2430    -0.1010    -0.9900 c3         1 FJB      -0.026100
     12 CAS         -5.5950    -0.4250    -0.3680 ca         1 FJB      -0.088300
     13 CAT         -7.7980     0.2920     0.4000 ca         1 FJB      -0.106000
     14 CAU         -8.0940    -1.0240     0.7940 ca         1 FJB      -0.104000
     15 CAV         -7.1420    -2.0410     0.6100 ca         1 FJB      -0.106000
     16 CAW         -5.8960    -1.7420     0.0320 ca         1 FJB      -0.107000
     17 NAD          5.1500     1.5810     0.1320 ns         1 FJB      -0.426300
     18 NAE          6.0850     2.2920     1.0930 nz         1 FJB      -0.756200
     19 NAF          3.9990    -2.9020    -0.6580 nd         1 FJB      -0.124800
     20 NAG          4.6110    -2.3190    -1.7400 na         1 FJB       0.133600
     21 NAH          3.3430    -1.9420    -0.0710 nc         1 FJB      -0.358000
     22 NAI          4.3530    -0.9740    -1.8550 nd         1 FJB      -0.507800
     23 OAN          0.8110     2.3780    -0.6910 o          1 FJB      -0.630100
     24 H            1.3130    -0.4420     0.6190 hn         1 FJB       0.366500
     25 HA           2.9520     1.1280    -1.3200 h1         1 FJB       0.094700
     26 HAO         -0.6610     0.1810     1.2470 hc         1 FJB       0.073700
     27 HAP         -1.1220     1.9050     1.0690 hc         1 FJB       0.073700
     28 HAQ         -1.9210     1.4470    -1.2470 hc         1 FJB       0.055200
     29 HAR         -1.4450    -0.2440    -1.0940 hc         1 FJB       0.055200
     30 HAS         -3.0870    -0.5360     0.7890 hc         1 FJB       0.045700
     31 HAT         -3.5620     1.1550     0.6380 hc         1 FJB       0.045700
     32 HAU         -4.3480     0.7190    -1.7100 hc         1 FJB       0.047700
     33 HAV         -3.8750    -0.9630    -1.5600 hc         1 FJB       0.047700
     34 HAW         -8.5340     1.0810     0.5420 ha         1 FJB       0.116000
     35 HAX         -9.0580    -1.2540     1.2420 ha         1 FJB       0.118000
     36 HAY         -7.3690    -3.0600     0.9170 ha         1 FJB       0.116000
     37 HAZ         -5.1630    -2.5350    -0.1050 ha         1 FJB       0.108000
     38 HAD          5.4160     1.3360    -0.8300 hn         1 FJB       0.392500
     39 HAE          5.6490     2.4500     2.0210 hn         1 FJB       0.531000
     40 HA0          6.9320     1.7800     1.4030 hn         1 FJB       0.531000
     41 HAG          5.1980    -2.8470    -2.3870 hn         1 FJB       0.428000
     42 HA1          6.3440     3.2710     0.8710 hn         1 FJB       0.531000
     43 HAA         -6.3300     1.6120    -0.4790 ha         1 FJB       0.108000
@<TRIPOS>BOND
     1     1     2 1   
     2     1     7 1   
     3     1    24 1   
     4     2     3 1   
     5     2     6 1   
     6     2    25 1   
     7     3     4 2   
     8     3    17 1   
     9     5    12 ar  
    10     5    13 ar  
    11     5    43 1   
    12     6    21 1   
    13     6    22 2   
    14     7     8 1   
    15     7    23 2   
    16     8     9 1   
    17     8    26 1   
    18     8    27 1   
    19     9    10 1   
    20     9    28 1   
    21     9    29 1   
    22    10    11 1   
    23    10    30 1   
    24    10    31 1   
    25    11    12 1   
    26    11    32 1   
    27    11    33 1   
    28    12    16 ar  
    29    13    14 ar  
    30    13    34 1   
    31    14    15 ar  
    32    14    35 1   
    33    15    16 ar  
    34    15    36 1   
    35    16    37 1   
    36    17    18 1   
    37    17    38 1   
    38    18    39 1   
    39    18    40 1   
    40    18    42 1   
    41    19    20 1   
    42    19    21 2   
    43    20    22 1   
    44    20    41 1   
@<TRIPOS>SUBSTRUCTURE
     1 FJB         1 TEMP              0 ****  ****    0 ROOT
