@<TRIPOS>MOLECULE
FJB
   43    44     1     0     0
SMALL
abcg2


@<TRIPOS>ATOM
      1 N            1.7920    -0.5730     0.0350 ns         1 FJB      -0.498900
      2 CA           3.1290    -0.2440    -0.3570 c3         1 FJB       0.079400
      3 C            3.5200     1.1300     0.1970 c          1 FJB       0.598100
      4 O            3.2650     1.4990     1.3190 o          1 FJB      -0.509100
      5 CAA         -6.2160     0.8530     0.7540 ca         1 FJB      -0.107000
      6 CAJ          4.0930    -1.2390     0.1950 cc         1 FJB       0.438300
      7 CAM          0.7780     0.2520    -0.3030 c          1 FJB       0.615100
      8 CAO         -0.5900    -0.1770     0.1640 c3         1 FJB      -0.148400
      9 CAP         -1.7270     0.5160    -0.5710 c3         1 FJB      -0.066400
     10 CAQ         -3.0880     0.0370    -0.0840 c3         1 FJB      -0.077400
     11 CAR         -4.2430     0.7300    -0.8080 c3         1 FJB      -0.026100
     12 CAS         -5.5810     0.2440    -0.3270 ca         1 FJB      -0.088300
     13 CAT         -7.4290     0.3760     1.2320 ca         1 FJB      -0.106000
     14 CAU         -8.0300    -0.7250     0.6330 ca         1 FJB      -0.104000
     15 CAV         -7.4080    -1.3410    -0.4450 ca         1 FJB      -0.106000
     16 CAW         -6.1940    -0.8590    -0.9180 ca         1 FJB      -0.107000
     17 NAD          4.2780     1.8600    -0.6570 ns         1 FJB      -0.426300
     18 NAE          4.7090     3.1170    -0.2470 nz         1 FJB      -0.756200
     19 NAF          4.9780    -2.6360     1.4970 nd         1 FJB      -0.124800
     20 NAG          5.7300    -2.4010     0.4680 na         1 FJB       0.133600
     21 NAH          3.9250    -1.8990     1.3480 nc         1 FJB      -0.358000
     22 NAI          5.2350    -1.5450    -0.3830 nd         1 FJB      -0.507800
     23 OAN          0.9970     1.2750    -0.9330 o          1 FJB      -0.630100
     24 H            1.6230    -1.4010     0.5860 hn         1 FJB       0.366500
     25 HA           3.2310    -0.2400    -1.4470 h1         1 FJB       0.094700
     26 HAO         -0.6790    -1.2630     0.0680 hc         1 FJB       0.073700
     27 HAP         -0.6540     0.0320     1.2380 hc         1 FJB       0.073700
     28 HAQ         -1.6520     1.5980    -0.4340 hc         1 FJB       0.055200
     29 HAR         -1.6410     0.3320    -1.6450 hc         1 FJB       0.055200
     30 HAS         -3.1720    -1.0450    -0.2260 hc         1 FJB       0.045700
     31 HAT         -3.1800     0.2120     0.9930 hc         1 FJB       0.045700
     32 HAU         -4.1630     1.8100    -0.6580 hc         1 FJB       0.047700
     33 HAV         -4.1490     0.5550    -1.8830 hc         1 FJB       0.047700
     34 HAW         -7.9090     0.8670     2.0690 ha         1 FJB       0.116000
     35 HAX         -8.9770    -1.0960     1.0020 ha         1 FJB       0.118000
     36 HAY         -7.8700    -2.1960    -0.9210 ha         1 FJB       0.116000
     37 HAZ         -5.7170    -1.3460    -1.7610 ha         1 FJB       0.108000
     38 HAD          4.3750     1.6710    -1.6440 hn         1 FJB       0.392500
     39 HAE          4.4870     3.2340     0.7490 hn         1 FJB       0.531000
     40 HA0          5.7210     3.2160    -0.3610 hn         1 FJB       0.531000
     41 HAG          6.6250    -2.8560     0.3360 hn         1 FJB       0.428000
     42 HA1          4.2470     3.8700    -0.7630 hn         1 FJB       0.531000
     43 HAA         -5.7550     1.7130     1.2270 ha         1 FJB       0.108000
@<TRIPOS>BOND
     1     1     2 1   
     2     1     7 1   
     3     1    24 1   
     4     2     3 1   
     5     2     6 1   
     6     2    25 1   
     7     3     4 2   
     8     3    17 1   
     9     5    12 ar  
    10     5    13 ar  
    11     5    43 1   
    12     6    21 1   
    13     6    22 2   
    14     7     8 1   
    15     7    23 2   
    16     8     9 1   
    17     8    26 1   
    18     8    27 1   
    19     9    10 1   
    20     9    28 1   
    21     9    29 1   
    22    10    11 1   
    23    10    30 1   
    24    10    31 1   
    25    11    12 1   
    26    11    32 1   
    27    11    33 1   
    28    12    16 ar  
    29    13    14 ar  
    30    13    34 1   
    31    14    15 ar  
    32    14    35 1   
    33    15    16 ar  
    34    15    36 1   
    35    16    37 1   
    36    17    18 1   
    37    17    38 1   
    38    18    39 1   
    39    18    40 1   
    40    18    42 1   
    41    19    20 1   
    42    19    21 2   
    43    20    22 1   
    44    20    41 1   
@<TRIPOS>SUBSTRUCTURE
     1 FJB         1 TEMP              0 ****  ****    0 ROOT
