@<TRIPOS>MOLECULE
FJC
   59    62     1     0     0
SMALL
No Charge or Current Charge


@<TRIPOS>ATOM
      1 C02        -12.2690    10.5140    69.7460 c          1 FJC       0.634300
      2 C07         -8.4070     6.2220    71.7410 ca         1 FJC      -0.142000
      3 C08         -9.5980     5.4670    71.8650 ca         1 FJC      -0.080000
      4 C09        -10.8410     6.0340    71.5110 ca         1 FJC      -0.130000
      5 C10        -10.8550     7.3540    71.0380 ca         1 FJC      -0.034200
      6 C05         -9.7020     8.0770    70.9200 ca         1 FJC      -0.114800
      7 C06         -8.4500     7.5480    71.2620 ca         1 FJC      -0.051000
      8 C04        -10.0570     9.3680    70.4170 cc         1 FJC      -0.187200
      9 C03        -11.4450     9.3720    70.2460 cd         1 FJC      -0.146300
     10 N11        -11.9490     8.1030    70.6380 na         1 FJC      -0.187700
     11 O01        -13.4850    10.4550    69.6230 o          1 FJC      -0.627100
     12 N12        -11.5430    11.6390    69.4260 ns         1 FJC      -0.471900
     13 C13        -12.1180    12.9320    68.9880 c3         1 FJC       0.038700
     14 C22        -11.2300    13.5640    67.8800 c          1 FJC       0.581100
     15 O34        -10.0860    13.1920    67.6490 o          1 FJC      -0.598100
     16 C14        -12.2900    13.9000    70.1880 c3         1 FJC      -0.040100
     17 C15        -13.1380    13.3220    71.3160 ca         1 FJC      -0.057300
     18 C21        -12.5250    12.7030    72.4240 ca         1 FJC      -0.150000
     19 C16        -14.5440    13.3940    71.2560 ca         1 FJC      -0.122000
     20 C19        -13.3120    12.1600    73.4510 ca         1 FJC       0.176000
     21 C18        -14.7120    12.2330    73.3890 ca         1 FJC      -0.146000
     22 C17        -15.3300    12.8520    72.2890 ca         1 FJC      -0.077000
     23 F20        -12.7180    11.5640    74.5080 f          1 FJC      -0.177000
     24 C30        -12.4780    12.9950    63.0080 c          1 FJC       0.565000
     25 N29        -11.7220    12.0090    62.4350 ns         1 FJC      -0.514900
     26 C28        -10.5560    11.6020    63.2160 c5         1 FJC       0.101000
     27 C27        -10.3020    12.8940    64.0400 c5         1 FJC      -0.091400
     28 C26        -11.7550    13.3800    64.3060 c5         1 FJC      -0.162700
     29 C25        -11.8930    14.8830    64.6800 c3         1 FJC      -0.064400
     30 C24        -11.2110    15.2940    66.0140 c3         1 FJC      -0.020300
     31 N23        -11.8250    14.5880    67.1650 ns         1 FJC      -0.492900
     32 C32        -11.2450    16.8230    66.2680 c          1 FJC       0.561900
     33 O33        -12.0260    17.5980    65.7230 o          1 FJC      -0.495100
     34 H12         -7.4530     5.7770    72.0160 ha         1 FJC       0.114000
     35 H13         -9.5550     4.4450    72.2360 ha         1 FJC       0.113000
     36 H14        -11.7610     5.4620    71.6040 ha         1 FJC       0.117000
     37 H11         -7.5430     8.1400    71.1610 ha         1 FJC       0.117000
     38 H10         -9.3710    10.1860    70.2130 ha         1 FJC       0.204000
     39 H25        -12.9210     7.8090    70.6270 hn         1 FJC       0.369000
     40 H1         -10.5370    11.5680    69.5050 hn         1 FJC       0.333500
     41 H2         -13.1020    12.7480    68.5380 h1         1 FJC       0.082700
     42 H15        -11.2980    14.1730    70.5690 hc         1 FJC       0.067700
     43 H16        -12.7410    14.8370    69.8360 hc         1 FJC       0.067700
     44 H4         -11.4430    12.6340    72.4870 ha         1 FJC       0.128000
     45 H17        -15.0300    13.8660    70.4050 ha         1 FJC       0.115000
     46 H18        -15.3140    11.8100    74.1900 ha         1 FJC       0.136000
     47 H3         -16.4150    12.9100    72.2340 ha         1 FJC       0.121000
     48 H7         -10.7910    10.7500    63.8680 h1         1 FJC       0.043700
     49 H8          -9.6940    11.3360    62.5910 h1         1 FJC       0.043700
     50 H21         -9.7390    13.6250    63.4460 hc         1 FJC       0.062700
     51 H22         -9.7310    12.7030    64.9540 hc         1 FJC       0.062700
     52 H6         -12.1850    12.7590    65.0990 hc         1 FJC       0.092700
     53 H19        -12.9580    15.1460    64.7370 hc         1 FJC       0.071700
     54 H20        -11.4760    15.4930    63.8690 hc         1 FJC       0.071700
     55 H5         -10.1460    15.0350    65.9560 h1         1 FJC       0.101700
     56 H26        -12.7780    14.8250    67.4230 hn         1 FJC       0.321500
     57 H24        -10.4940    17.1940    67.0000 h4         1 FJC      -0.004800
     58 H27        -11.9770    11.6650    61.5170 hn         1 FJC       0.325500
     59 O31        -13.3930    13.5580    62.4290 o          1 FJC      -0.556000
@<TRIPOS>BOND
     1     1     9 1   
     2     1    11 2   
     3     1    12 1   
     4     2     3 ar  
     5     2     7 ar  
     6     2    34 1   
     7     3     4 ar  
     8     3    35 1   
     9     4     5 ar  
    10     4    36 1   
    11     5     6 ar  
    12     5    10 1   
    13     6     7 ar  
    14     6     8 1   
    15     7    37 1   
    16     8     9 2   
    17     8    38 1   
    18     9    10 1   
    19    10    39 1   
    20    12    13 1   
    21    12    40 1   
    22    13    14 1   
    23    13    16 1   
    24    13    41 1   
    25    14    15 2   
    26    14    31 1   
    27    16    17 1   
    28    16    42 1   
    29    16    43 1   
    30    17    18 ar  
    31    17    19 ar  
    32    18    20 ar  
    33    18    44 1   
    34    19    22 ar  
    35    19    45 1   
    36    20    21 ar  
    37    20    23 1   
    38    21    22 ar  
    39    21    46 1   
    40    22    47 1   
    41    24    25 1   
    42    24    28 1   
    43    24    59 2   
    44    25    26 1   
    45    25    58 1   
    46    26    27 1   
    47    26    48 1   
    48    26    49 1   
    49    27    28 1   
    50    27    50 1   
    51    27    51 1   
    52    28    29 1   
    53    28    52 1   
    54    29    30 1   
    55    29    53 1   
    56    29    54 1   
    57    30    31 1   
    58    30    32 1   
    59    30    55 1   
    60    31    56 1   
    61    32    33 2   
    62    32    57 1   
@<TRIPOS>SUBSTRUCTURE
     1 FJC         1 TEMP              0 ****  ****    0 ROOT
