@<TRIPOS>MOLECULE
FJC
   59    62     1     0     0
SMALL
bcc


@<TRIPOS>ATOM
      1 C02        -11.7940    11.0360    69.0300 c          1 FJC       0.701300
      2 C07         -9.1590     6.0000    71.0550 ca         1 FJC      -0.160000
      3 C08         -9.6720     5.5190    69.8340 ca         1 FJC      -0.098000
      4 C09        -10.3780     6.3360    68.9770 ca         1 FJC      -0.148000
      5 C10        -10.5650     7.6640    69.3680 ca         1 FJC      -0.034200
      6 C05        -10.0580     8.1660    70.5880 ca         1 FJC      -0.114800
      7 C06         -9.3440     7.3090    71.4390 ca         1 FJC      -0.069000
      8 C04        -10.4360     9.5360    70.6570 cc         1 FJC      -0.137200
      9 C03        -11.1370     9.8100    69.5110 cd         1 FJC      -0.146300
     10 N11        -11.2110     8.6820    68.7420 na         1 FJC      -0.137400
     11 O01        -12.4990    11.0160    68.0290 o          1 FJC      -0.627100
     12 N12        -11.5890    12.1490    69.7590 ns         1 FJC      -0.538900
     13 C13        -12.1430    13.4150    69.3550 c3         1 FJC       0.038700
     14 C22        -11.3690    13.9630    68.1540 c          1 FJC       0.648100
     15 O34        -10.1510    13.9400    68.1330 o          1 FJC      -0.598100
     16 C14        -12.0740    14.4170    70.5130 c3         1 FJC      -0.040100
     17 C15        -12.8580    13.9410    71.7040 ca         1 FJC      -0.057300
     18 C21        -12.2080    13.3880    72.8030 ca         1 FJC      -0.168000
     19 C16        -14.2490    14.0180    71.7080 ca         1 FJC      -0.140000
     20 C19        -12.9570    12.9260    73.8680 ca         1 FJC       0.140900
     21 C18        -14.3360    12.9910    73.8890 ca         1 FJC      -0.164000
     22 C17        -14.9780    13.5470    72.7900 ca         1 FJC      -0.095000
     23 F20        -12.3160    12.3940    74.9210 f          1 FJC      -0.141900
     24 C30        -12.3570    11.8340    63.7130 c          1 FJC       0.707500
     25 N29        -11.4840    10.8350    63.5090 ns         1 FJC      -0.581900
     26 C28        -10.3780    10.8050    64.4440 c5         1 FJC       0.101000
     27 C27        -10.3750    12.2360    64.9840 c5         1 FJC      -0.091400
     28 C26        -11.8410    12.6560    64.8850 c5         1 FJC      -0.162700
     29 C25        -12.1090    14.1430    64.7270 c3         1 FJC      -0.064400
     30 C24        -11.6110    14.9580    65.9170 c3         1 FJC      -0.020300
     31 N23        -12.1330    14.4820    67.1770 ns         1 FJC      -0.559900
     32 C32        -11.9050    16.4380    65.7970 c          1 FJC       0.561900
     33 O33        -12.2560    16.9840    64.7850 o          1 FJC      -0.495100
     34 H12         -8.6100     5.3240    71.6980 ha         1 FJC       0.132000
     35 H13         -9.5090     4.4840    69.5650 ha         1 FJC       0.131000
     36 H14        -10.7740     5.9630    68.0420 ha         1 FJC       0.135000
     37 H11         -8.9470     7.6720    72.3790 ha         1 FJC       0.135000
     38 H10        -10.2240    10.2170    71.4670 ha         1 FJC       0.154000
     39 H25        -11.6960     8.6260    67.8610 hn         1 FJC       0.318700
     40 H1         -10.8620    12.1510    70.4560 hn         1 FJC       0.333500
     41 H2         -13.1900    13.2610    69.0860 h1         1 FJC       0.082700
     42 H15        -11.0300    14.5890    70.7860 hc         1 FJC       0.067700
     43 H16        -12.4690    15.3710    70.1610 hc         1 FJC       0.067700
     44 H4         -11.1260    13.3270    72.8400 ha         1 FJC       0.146000
     45 H17        -14.7660    14.4530    70.8620 ha         1 FJC       0.133000
     46 H18        -14.8930    12.6200    74.7390 ha         1 FJC       0.154000
     47 H3         -16.0580    13.6150    72.7840 ha         1 FJC       0.139000
     48 H7         -10.5530    10.0760    65.2410 h1         1 FJC       0.043700
     49 H8          -9.4470    10.5400    63.9440 h1         1 FJC       0.043700
     50 H21         -9.7610    12.8730    64.3420 hc         1 FJC       0.062700
     51 H22         -9.9770    12.2920    65.9940 hc         1 FJC       0.062700
     52 H6         -12.3760    12.2810    65.7670 hc         1 FJC       0.092700
     53 H19        -13.1810    14.3070    64.5890 hc         1 FJC       0.071700
     54 H20        -11.6150    14.5130    63.8260 hc         1 FJC       0.071700
     55 H5         -10.5190    14.8870    65.9840 h1         1 FJC       0.101700
     56 H26        -13.1360    14.4010    67.2600 hn         1 FJC       0.321500
     57 H24        -11.7550    17.0000    66.7370 h4         1 FJC      -0.004800
     58 H27        -11.6750    10.0790    62.8700 hn         1 FJC       0.325500
     59 O31        -13.3860    12.0330    63.0870 o          1 FJC      -0.631500
@<TRIPOS>BOND
     1     1     9 1   
     2     1    11 2   
     3     1    12 1   
     4     2     3 ar  
     5     2     7 ar  
     6     2    34 1   
     7     3     4 ar  
     8     3    35 1   
     9     4     5 ar  
    10     4    36 1   
    11     5     6 ar  
    12     5    10 1   
    13     6     7 ar  
    14     6     8 1   
    15     7    37 1   
    16     8     9 2   
    17     8    38 1   
    18     9    10 1   
    19    10    39 1   
    20    12    13 1   
    21    12    40 1   
    22    13    14 1   
    23    13    16 1   
    24    13    41 1   
    25    14    15 2   
    26    14    31 1   
    27    16    17 1   
    28    16    42 1   
    29    16    43 1   
    30    17    18 ar  
    31    17    19 ar  
    32    18    20 ar  
    33    18    44 1   
    34    19    22 ar  
    35    19    45 1   
    36    20    21 ar  
    37    20    23 1   
    38    21    22 ar  
    39    21    46 1   
    40    22    47 1   
    41    24    25 1   
    42    24    28 1   
    43    24    59 2   
    44    25    26 1   
    45    25    58 1   
    46    26    27 1   
    47    26    48 1   
    48    26    49 1   
    49    27    28 1   
    50    27    50 1   
    51    27    51 1   
    52    28    29 1   
    53    28    52 1   
    54    29    30 1   
    55    29    53 1   
    56    29    54 1   
    57    30    31 1   
    58    30    32 1   
    59    30    55 1   
    60    31    56 1   
    61    32    33 2   
    62    32    57 1   
@<TRIPOS>SUBSTRUCTURE
     1 FJC         1 TEMP              0 ****  ****    0 ROOT
