@<TRIPOS>MOLECULE
FJD
   59    63     1     0     0
SMALL
abcg2


@<TRIPOS>ATOM
      1 CL1         -7.0310     0.7010    -1.2090 cl         1 FJD      -0.116000
      2 C25         -5.5220     0.9910    -0.4690 cc         1 FJD      -0.022000
      3 C24         -5.1680     2.0730     0.2750 cd         1 FJD      -0.126000
      4 C22         -3.8330     1.9780     0.7360 cd         1 FJD      -0.090000
      5 S1          -4.2520    -0.1560    -0.6250 ss         1 FJD       0.309000
      6 C20         -3.2060     0.8310     0.3330 cc         1 FJD      -0.287500
      7 C17         -1.8640     0.4070     0.6140 cc         1 FJD       0.230500
      8 O16         -1.4710    -0.8080     0.1590 os         1 FJD      -0.248000
      9 C10         -0.8110     0.9370     1.2850 cd         1 FJD       0.208900
     10 N9           0.2370     0.0500     1.2400 nd         1 FJD      -0.670000
     11 C4          -0.2010    -0.9540     0.5650 cc         1 FJD       0.442300
     12 C1           0.5170    -2.1920     0.1510 c5         1 FJD       0.156200
     13 N3           1.6170    -2.4750     1.0570 n3         1 FJD      -0.679600
     14 C7           2.5100    -3.3710     0.3310 c5         1 FJD       0.157500
     15 C14          1.8830    -4.7690     0.4540 c5         1 FJD      -0.106400
     16 C15          1.1550    -4.7190     1.8100 c5         1 FJD      -0.112400
     17 C8           1.2170    -3.2310     2.2380 c5         1 FJD       0.141800
     18 C5           2.5480    -2.7720    -1.0650 c5         1 FJD      -0.142700
     19 C2           1.1850    -2.1020    -1.2530 c5         1 FJD      -0.152700
     20 C6           1.5050    -0.6820    -1.6480 c          1 FJD       0.582000
     21 O13          0.7250     0.1700    -1.9930 o          1 FJD      -0.495000
     22 C11          3.5370    -1.6300    -1.1460 c          1 FJD       0.586000
     23 O18          4.7210    -1.6760    -0.9240 o          1 FJD      -0.492000
     24 N12          2.8610    -0.4900    -1.5220 n          1 FJD      -0.382400
     25 C19          3.4770     0.8120    -1.6500 c3         1 FJD       0.114000
     26 C21          3.3410     1.6010    -0.3490 c3         1 FJD      -0.129400
     27 C23          3.9010     2.9940    -0.5570 c3         1 FJD       0.103600
     28 N29          3.7610     3.9170     0.6230 n4         1 FJD      -0.494000
     29 C32          4.3930     5.2170     0.2600 c3         1 FJD       0.074233
     30 C31          2.3270     4.1570     0.9450 c3         1 FJD       0.074233
     31 C30          4.4520     3.3590     1.8190 c3         1 FJD       0.074233
     32 H24         -5.8290     2.8990     0.4890 ha         1 FJD       0.155000
     33 H22         -3.3570     2.7330     1.3460 ha         1 FJD       0.135000
     34 H10         -0.7460     1.8850     1.7950 h4         1 FJD       0.039100
     35 H1          -0.2230    -3.0050     0.1000 h1         1 FJD       0.075700
     36 H7           3.4970    -3.3720     0.8000 h1         1 FJD       0.102700
     37 H82          1.9740    -3.0900     3.0120 h1         1 FJD       0.068700
     38 H81          0.2760    -2.8560     2.6420 h1         1 FJD       0.068700
     39 H5           2.7840    -3.5090    -1.8360 hc         1 FJD       0.111700
     40 H2           0.5530    -2.5630    -2.0100 hc         1 FJD       0.112700
     41 H141         1.1760    -4.9520    -0.3590 hc         1 FJD       0.058700
     42 H142         2.6370    -5.5530     0.4030 hc         1 FJD       0.058700
     43 H151         0.1260    -5.0670     1.7160 hc         1 FJD       0.060200
     44 H152         1.6370    -5.3520     2.5550 hc         1 FJD       0.060200
     45 H191         4.5240     0.6720    -1.9160 h1         1 FJD       0.074700
     46 H192         2.9970     1.3380    -2.4750 h1         1 FJD       0.074700
     47 H211         2.2870     1.6360    -0.0720 hc         1 FJD       0.085200
     48 H212         3.8760     1.0720     0.4410 hc         1 FJD       0.085200
     49 H231         4.9660     2.9510    -0.7860 hx         1 FJD       0.091200
     50 H232         3.3990     3.4900    -1.3890 hx         1 FJD       0.091200
     51 H321         3.8860     5.6270    -0.6090 hx         1 FJD       0.097811
     52 H322         4.3020     5.9020     1.0980 hx         1 FJD       0.097811
     53 H323         5.4420     5.0530     0.0310 hx         1 FJD       0.097811
     54 H311         1.8650     3.2360     1.2870 hx         1 FJD       0.097811
     55 H312         2.2630     4.8990     1.7360 hx         1 FJD       0.097811
     56 H313         1.8160     4.5190     0.0570 hx         1 FJD       0.097811
     57 H301         5.4810     3.1240     1.5620 hx         1 FJD       0.097811
     58 H302         4.4310     4.1010     2.6130 hx         1 FJD       0.097811
     59 H303         3.9390     2.4620     2.1530 hx         1 FJD       0.097811
@<TRIPOS>BOND
     1     1     2 1   
     2     2     3 2   
     3     2     5 1   
     4     3     4 1   
     5     3    32 1   
     6     4     6 2   
     7     4    33 1   
     8     5     6 1   
     9     6     7 1   
    10     7     8 1   
    11     7     9 2   
    12     8    11 1   
    13     9    10 1   
    14     9    34 1   
    15    10    11 2   
    16    11    12 1   
    17    12    13 1   
    18    12    19 1   
    19    12    35 1   
    20    13    14 1   
    21    13    17 1   
    22    14    15 1   
    23    14    18 1   
    24    14    36 1   
    25    15    16 1   
    26    15    41 1   
    27    15    42 1   
    28    16    17 1   
    29    16    43 1   
    30    16    44 1   
    31    17    37 1   
    32    17    38 1   
    33    18    19 1   
    34    18    22 1   
    35    18    39 1   
    36    19    20 1   
    37    19    40 1   
    38    20    21 2   
    39    20    24 1   
    40    22    23 2   
    41    22    24 1   
    42    24    25 1   
    43    25    26 1   
    44    25    45 1   
    45    25    46 1   
    46    26    27 1   
    47    26    47 1   
    48    26    48 1   
    49    27    28 1   
    50    27    49 1   
    51    27    50 1   
    52    28    29 1   
    53    28    30 1   
    54    28    31 1   
    55    29    51 1   
    56    29    52 1   
    57    29    53 1   
    58    30    54 1   
    59    30    55 1   
    60    30    56 1   
    61    31    57 1   
    62    31    58 1   
    63    31    59 1   
@<TRIPOS>SUBSTRUCTURE
     1 FJD         1 TEMP              0 ****  ****    0 ROOT
