@<TRIPOS>MOLECULE
FJD
   59    63     1     0     0
SMALL
No Charge or Current Charge


@<TRIPOS>ATOM
      1 Cl1         -7.6980     0.4270    -1.0410 cl         1 FJD      -0.116000
      2 C25         -6.0790     0.6390    -0.4480 cc         1 FJD      -0.022000
      3 C24         -5.6140     1.7370     0.2300 cd         1 FJD      -0.126000
      4 C22         -4.2420     1.6310     0.5940 cd         1 FJD      -0.090000
      5 S1          -4.8270    -0.5820    -0.6670 ss         1 FJD       0.309000
      6 C20         -3.6750     0.4460     0.1840 cc         1 FJD      -0.287500
      7 C17         -2.3070     0.0850     0.4200 cc         1 FJD       0.230500
      8 O16         -1.7920    -1.0930    -0.0010 os         1 FJD      -0.248000
      9 C10         -1.3480     0.8180     1.0690 cd         1 FJD       0.208900
     10 N9          -0.1740     0.0920     1.0630 nd         1 FJD      -0.670000
     11 C4          -0.4930    -1.0330     0.4170 cc         1 FJD       0.442300
     12 C1           0.4050    -2.2350     0.0570 c5         1 FJD       0.156200
     13 N3           1.5520    -2.3230     1.0270 n3         1 FJD      -0.679600
     14 C7           2.5470    -3.2160     0.4250 c5         1 FJD       0.157500
     15 C14          1.9070    -4.6330     0.5360 c5         1 FJD      -0.106400
     16 C15          1.1120    -4.5430     1.8800 c5         1 FJD      -0.112400
     17 C8           1.1440    -3.0270     2.2720 c5         1 FJD       0.141800
     18 C5           2.5660    -2.7570    -1.0610 c5         1 FJD      -0.142700
     19 C2           1.1490    -2.1090    -1.3180 c5         1 FJD      -0.152700
     20 C6           1.4380    -0.6370    -1.6450 c          1 FJD       0.582000
     21 O13          0.7020     0.1850    -2.1730 o          1 FJD      -0.495000
     22 C11          3.5620    -1.5920    -1.1550 c          1 FJD       0.586000
     23 O18          4.7840    -1.6320    -1.1480 o          1 FJD      -0.492000
     24 N12          2.7970    -0.4630    -1.4220 n          1 FJD      -0.382400
     25 C19          3.4340     0.8540    -1.6310 c3         1 FJD       0.114000
     26 C21          3.4670     1.6790    -0.3330 c3         1 FJD      -0.129400
     27 C23          4.0950     3.0730    -0.5330 c3         1 FJD       0.103600
     28 N29          4.1670     3.9970     0.6920 n4         1 FJD      -0.494000
     29 C32          4.8210     5.3210     0.2730 c3         1 FJD       0.074233
     30 C31          2.7570     4.2910     1.2300 c3         1 FJD       0.074233
     31 C30          5.0150     3.3570     1.8020 c3         1 FJD       0.074233
     32 H24         -6.2320     2.5980     0.4650 ha         1 FJD       0.155000
     33 H22         -3.7110     2.4100     1.1350 ha         1 FJD       0.135000
     34 H10         -1.4260     1.7970     1.5240 h4         1 FJD       0.039100
     35 H1          -0.2200    -3.1380     0.0580 h1         1 FJD       0.075700
     36 H7           3.5280    -3.1700     0.9240 h1         1 FJD       0.102700
     37 H82          1.8930    -2.8610     3.0600 h1         1 FJD       0.068700
     38 H81          0.1800    -2.6770     2.6680 h1         1 FJD       0.068700
     39 H5           2.8740    -3.5540    -1.7450 hc         1 FJD       0.111700
     40 H2           0.5600    -2.5500    -2.1290 hc         1 FJD       0.112700
     41 H141         1.2420    -4.8730    -0.3030 hc         1 FJD       0.058700
     42 H142         2.6710    -5.4190     0.5600 hc         1 FJD       0.058700
     43 H151         0.0840    -4.9010     1.7540 hc         1 FJD       0.060200
     44 H152         1.5660    -5.1590     2.6650 hc         1 FJD       0.060200
     45 H191         4.4580     0.7180    -2.0030 h1         1 FJD       0.074700
     46 H192         2.8870     1.4110    -2.4040 h1         1 FJD       0.074700
     47 H211         2.4420     1.7880     0.0410 hc         1 FJD       0.085200
     48 H212         4.0300     1.1250     0.4260 hc         1 FJD       0.085200
     49 H231         5.1160     2.9440    -0.9020 hx         1 FJD       0.091200
     50 H232         3.5290     3.6010    -1.3040 hx         1 FJD       0.091200
     51 H321         4.2210     5.7880    -0.5110 hx         1 FJD       0.097811
     52 H322         4.8770     5.9860     1.1370 hx         1 FJD       0.097811
     53 H323         5.8270     5.1240    -0.1040 hx         1 FJD       0.097811
     54 H311         2.2950     3.3600     1.5640 hx         1 FJD       0.097811
     55 H312         2.8290     4.9840     2.0700 hx         1 FJD       0.097811
     56 H313         2.1540     4.7360     0.4360 hx         1 FJD       0.097811
     57 H301         6.0130     3.1410     1.4150 hx         1 FJD       0.097811
     58 H302         5.0900     4.0490     2.6430 hx         1 FJD       0.097811
     59 H303         4.5400     2.4310     2.1330 hx         1 FJD       0.097811
@<TRIPOS>BOND
     1     1     2 1   
     2     2     3 2   
     3     2     5 1   
     4     3     4 1   
     5     3    32 1   
     6     4     6 2   
     7     4    33 1   
     8     5     6 1   
     9     6     7 1   
    10     7     8 1   
    11     7     9 2   
    12     8    11 1   
    13     9    10 1   
    14     9    34 1   
    15    10    11 2   
    16    11    12 1   
    17    12    13 1   
    18    12    19 1   
    19    12    35 1   
    20    13    14 1   
    21    13    17 1   
    22    14    15 1   
    23    14    18 1   
    24    14    36 1   
    25    15    16 1   
    26    15    41 1   
    27    15    42 1   
    28    16    17 1   
    29    16    43 1   
    30    16    44 1   
    31    17    37 1   
    32    17    38 1   
    33    18    19 1   
    34    18    22 1   
    35    18    39 1   
    36    19    20 1   
    37    19    40 1   
    38    20    21 2   
    39    20    24 1   
    40    22    23 2   
    41    22    24 1   
    42    24    25 1   
    43    25    26 1   
    44    25    45 1   
    45    25    46 1   
    46    26    27 1   
    47    26    47 1   
    48    26    48 1   
    49    27    28 1   
    50    27    49 1   
    51    27    50 1   
    52    28    29 1   
    53    28    30 1   
    54    28    31 1   
    55    29    51 1   
    56    29    52 1   
    57    29    53 1   
    58    30    54 1   
    59    30    55 1   
    60    30    56 1   
    61    31    57 1   
    62    31    58 1   
    63    31    59 1   
@<TRIPOS>SUBSTRUCTURE
     1 FJD         1 TEMP              0 ****  ****    0 ROOT
