@<TRIPOS>MOLECULE
FJE
   29    31     1     0     0
SMALL
bcc


@<TRIPOS>ATOM
      1 C8          -2.9720    -0.3710     0.9370 ca         1 FJE       0.125900
      2 C5          -3.9550     0.2160    -1.5600 ca         1 FJE      -0.147000
      3 C6          -2.6130    -0.0320    -1.3760 ca         1 FJE       0.133900
      4 N1           1.1390     2.4680    -0.2980 na         1 FJE      -0.256100
      5 N2           3.4810     2.0190    -0.1100 nb         1 FJE      -0.666000
      6 C4          -4.8040     0.1680    -0.4640 ca         1 FJE      -0.146000
      7 F1          -1.7730    -0.0030    -2.4260 f          1 FJE      -0.134900
      8 C7          -2.0930    -0.3320    -0.1280 ca         1 FJE      -0.207600
      9 C9          -0.6420    -0.6690     0.0660 c          1 FJE       0.641900
     10 C10          0.3020     0.4120    -0.0470 cc         1 FJE      -0.236400
     11 C16          1.7320     0.3300     0.0440 ca         1 FJE      -0.146100
     12 C15          2.6700    -0.6770     0.2410 ca         1 FJE      -0.030000
     13 C14          3.9960    -0.2860     0.2540 ca         1 FJE      -0.119900
     14 CL           5.2430    -1.4600     0.4920 cl         1 FJE      -0.094400
     15 C13          4.3630     1.0530     0.0780 ca         1 FJE       0.430200
     16 C12          2.2180     1.6410    -0.1210 ca         1 FJE       0.415800
     17 C11          0.0060     1.7460    -0.2550 cd         1 FJE      -0.021100
     18 O2          -0.3120    -1.8130     0.3160 o          1 FJE      -0.506100
     19 F           -2.4810    -0.6480     2.1580 f          1 FJE      -0.131900
     20 C3          -4.3380    -0.1210     0.8200 ca         1 FJE       0.098600
     21 N           -5.1600    -0.0990     1.9280 nv         1 FJE      -0.804200
     22 H1          -4.3420     0.4400    -2.5450 ha         1 FJE       0.156000
     23 H3          -5.8600     0.3610    -0.6080 ha         1 FJE       0.140000
     24 H4           2.3850    -1.7100     0.3780 ha         1 FJE       0.175000
     25 H5           5.4100     1.3340     0.0920 h4         1 FJE       0.036100
     26 H6          -0.9540     2.2250    -0.3660 h4         1 FJE       0.177000
     27 H7          -6.1410    -0.1900     1.7180 hn         1 FJE       0.399300
     28 H8          -4.8960    -0.7100     2.6850 hn         1 FJE       0.399300
     29 H2           1.1870     3.4670    -0.4300 hn         1 FJE       0.317700
@<TRIPOS>BOND
     1     1     8 ar  
     2     1    19 1   
     3     1    20 ar  
     4     2     3 ar  
     5     2     6 ar  
     6     2    22 1   
     7     3     7 1   
     8     3     8 ar  
     9     4    16 1   
    10     4    17 1   
    11     4    29 1   
    12     5    15 ar  
    13     5    16 ar  
    14     6    20 ar  
    15     6    23 1   
    16     8     9 1   
    17     9    10 1   
    18     9    18 2   
    19    10    11 1   
    20    10    17 2   
    21    11    12 ar  
    22    11    16 ar  
    23    12    13 ar  
    24    12    24 1   
    25    13    14 1   
    26    13    15 ar  
    27    15    25 1   
    28    17    26 1   
    29    20    21 1   
    30    21    27 1   
    31    21    28 1   
@<TRIPOS>SUBSTRUCTURE
     1 FJE         1 TEMP              0 ****  ****    0 ROOT
