@<TRIPOS>MOLECULE
FJE
   29    31     1     0     0
SMALL
No Charge or Current Charge


@<TRIPOS>ATOM
      1 C8          -3.0310    -0.5080     1.0400 ca         1 FJE       0.161000
      2 C5          -3.8630     0.3280    -1.5050 ca         1 FJE      -0.129000
      3 C6          -2.5030     0.0880    -1.2530 ca         1 FJE       0.169000
      4 N1           1.1930     2.5710    -0.4290 na         1 FJE      -0.306400
      5 N2           3.5730     2.0030    -0.2940 nb         1 FJE      -0.666000
      6 C4          -4.8140     0.1560    -0.4820 ca         1 FJE      -0.128000
      7 F1          -1.6200     0.2170    -2.2680 f          1 FJE      -0.170000
      8 C7          -2.0720    -0.3180     0.0240 ca         1 FJE      -0.207600
      9 C9          -0.6260    -0.5950     0.2990 c          1 FJE       0.641900
     10 C10          0.3370     0.5000    -0.0070 cc         1 FJE      -0.236400
     11 C16          1.7760     0.4480     0.0210 ca         1 FJE      -0.080800
     12 C15          2.6450    -0.6310     0.2490 ca         1 FJE      -0.012000
     13 C14          4.0220    -0.3490     0.2000 ca         1 FJE       0.037000
     14 Cl           5.2010    -1.6310     0.4740 cl         1 FJE      -0.186000
     15 C13          4.4390     0.9750    -0.0730 ca         1 FJE       0.364900
     16 C12          2.2580     1.7140    -0.2430 ca         1 FJE       0.350500
     17 C11          0.0010     1.8240    -0.2650 cd         1 FJE      -0.071100
     18 O2          -0.2680    -1.6940     0.7020 o          1 FJE      -0.506100
     19 F           -2.6290    -0.8990     2.2750 f          1 FJE      -0.167000
     20 C3          -4.4100    -0.2660     0.7960 ca         1 FJE       0.237000
     21 N           -5.3680    -0.4300     1.7780 nv         1 FJE      -1.053000
     22 H1          -4.1810     0.6400    -2.4970 ha         1 FJE       0.138000
     23 H3          -5.8640     0.3450    -0.6890 ha         1 FJE       0.122000
     24 H4           2.2850    -1.6350     0.4530 ha         1 FJE       0.157000
     25 H5           5.5000     1.2200    -0.1170 h4         1 FJE       0.036100
     26 H6          -0.9810     2.2920    -0.3310 h4         1 FJE       0.227000
     27 H7          -6.3600    -0.3510     1.5570 hn         1 FJE       0.454500
     28 H8          -5.1100    -0.8170     2.6860 hn         1 FJE       0.454500
     29 H2           1.2680     3.5610    -0.6270 hn         1 FJE       0.368000
@<TRIPOS>BOND
     1     1     8 ar  
     2     1    19 1   
     3     1    20 ar  
     4     2     3 ar  
     5     2     6 ar  
     6     2    22 1   
     7     3     7 1   
     8     3     8 ar  
     9     4    16 1   
    10     4    17 1   
    11     4    29 1   
    12     5    15 ar  
    13     5    16 ar  
    14     6    20 ar  
    15     6    23 1   
    16     8     9 1   
    17     9    10 1   
    18     9    18 2   
    19    10    11 1   
    20    10    17 2   
    21    11    12 ar  
    22    11    16 ar  
    23    12    13 ar  
    24    12    24 1   
    25    13    14 1   
    26    13    15 ar  
    27    15    25 1   
    28    17    26 1   
    29    20    21 1   
    30    21    27 1   
    31    21    28 1   
@<TRIPOS>SUBSTRUCTURE
     1 FJE         1 TEMP              0 ****  ****    0 ROOT
