@<TRIPOS>MOLECULE
FJF
   29    30     1     0     0
SMALL
No Charge or Current Charge


@<TRIPOS>ATOM
      1 O01         10.4330    -6.8590    46.5140 o          1 FJF      -0.553000
      2 C02          9.6680    -7.7970    46.4130 c          1 FJF       0.614000
      3 N03          9.0450    -8.1160    45.2410 ns         1 FJF      -0.517600
      4 C04          8.1630    -9.1710    45.0530 cc         1 FJF       0.020600
      5 C05          7.8910    -9.9640    46.1500 cd         1 FJF      -0.294400
      6 C06          8.5260    -9.6900    47.4560 c          1 FJF       0.592200
      7 O07          8.3280   -10.3490    48.4640 o          1 FJF      -0.514000
      8 N08          9.3620    -8.6160    47.4510 ns         1 FJF      -0.470500
      9 C09          6.9290   -11.1290    45.9400 c5         1 FJF       0.240500
     10 O10          6.3920   -11.1840    44.5920 os         1 FJF      -0.437000
     11 C11          4.9510   -10.9990    44.6400 c5         1 FJF       0.164300
     12 C12          4.5920    -9.4920    44.4420 c3         1 FJF       0.138600
     13 O13          4.8220    -9.0710    43.0850 oh         1 FJF      -0.704000
     14 C14          4.5460   -11.5690    46.0380 c5         1 FJF       0.109300
     15 O15          4.5550   -13.0010    46.0980 oh         1 FJF      -0.702000
     16 C16          5.6960   -10.9830    46.9050 c5         1 FJF       0.097300
     17 O17          5.8480   -11.6940    48.1470 oh         1 FJF      -0.689000
     18 H1           7.7710    -9.2670    44.0410 h4         1 FJF       0.227000
     19 H3           9.8110    -8.4010    48.3270 hn         1 FJF       0.344500
     20 H4           7.4620   -12.0730    46.1280 h1         1 FJF       0.102700
     21 H5           4.4810   -11.5730    43.8310 h1         1 FJF       0.103700
     22 H6           5.1790    -8.8740    45.1340 h1         1 FJF       0.019200
     23 H7           3.5320    -9.3540    44.6960 h1         1 FJF       0.019200
     24 H8           4.5450    -8.1270    43.0220 ho         1 FJF       0.501000
     25 H9           3.5690   -11.1820    46.3610 h1         1 FJF       0.048700
     26 H10          4.9310   -13.1920    46.9940 ho         1 FJF       0.524000
     27 H11          5.5010    -9.9210    47.1120 h1         1 FJF       0.042700
     28 H12          6.6680   -11.3290    48.5720 ho         1 FJF       0.509000
     29 H13          9.2800    -7.5010    44.4660 hn         1 FJF       0.462000
@<TRIPOS>BOND
     1     1     2 2   
     2     2     3 1   
     3     2     8 1   
     4     3     4 1   
     5     3    29 1   
     6     4     5 2   
     7     4    18 1   
     8     5     6 1   
     9     5     9 1   
    10     6     7 2   
    11     6     8 1   
    12     8    19 1   
    13     9    10 1   
    14     9    16 1   
    15     9    20 1   
    16    10    11 1   
    17    11    12 1   
    18    11    14 1   
    19    11    21 1   
    20    12    13 1   
    21    12    22 1   
    22    12    23 1   
    23    13    24 1   
    24    14    15 1   
    25    14    16 1   
    26    14    25 1   
    27    15    26 1   
    28    16    17 1   
    29    16    27 1   
    30    17    28 1   
@<TRIPOS>SUBSTRUCTURE
     1 FJF         1 TEMP              0 ****  ****    0 ROOT
