@<TRIPOS>MOLECULE
FJF
   29    30     1     0     0
SMALL
abcg2


@<TRIPOS>ATOM
      1 O01         10.6860    -6.9540    46.5070 o          1 FJF      -0.553000
      2 C02          9.8690    -7.8460    46.4040 c          1 FJF       0.614000
      3 N03          8.8780    -7.8540    45.4610 ns         1 FJF      -0.517600
      4 C04          7.9670    -8.8560    45.3400 cc         1 FJF       0.020600
      5 C05          7.9500    -9.9240    46.1600 cd         1 FJF      -0.294400
      6 C06          8.9650   -10.0140    47.1900 c          1 FJF       0.592200
      7 O07          9.0880   -10.9320    47.9800 o          1 FJF      -0.514000
      8 N08          9.8510    -8.9460    47.2220 ns         1 FJF      -0.470500
      9 C09          6.9230   -11.0130    46.0360 c5         1 FJF       0.240500
     10 O10          6.4340   -11.0600    44.7110 os         1 FJF      -0.437000
     11 C11          5.0110   -11.0490    44.6800 c5         1 FJF       0.164300
     12 C12          4.4750    -9.6850    44.2800 c3         1 FJF       0.138600
     13 O13          5.0830    -9.3010    43.0710 oh         1 FJF      -0.704000
     14 C14          4.5730   -11.4400    46.0800 c5         1 FJF       0.109300
     15 O15          4.5950   -12.8390    46.1970 oh         1 FJF      -0.702000
     16 C16          5.6850   -10.8050    46.9250 c5         1 FJF       0.097300
     17 O17          5.8640   -11.4120    48.1730 oh         1 FJF      -0.689000
     18 H1           7.2640    -8.7360    44.5280 h4         1 FJF       0.227000
     19 H3          10.5750    -8.9820    47.9280 hn         1 FJF       0.344500
     20 H4           7.3840   -11.9740    46.2970 h1         1 FJF       0.102700
     21 H5           4.6840   -11.7870    43.9410 h1         1 FJF       0.103700
     22 H6           4.6600    -8.9490    45.0750 h1         1 FJF       0.019200
     23 H7           3.3850    -9.7700    44.1790 h1         1 FJF       0.019200
     24 H8           4.7570    -8.4280    42.8370 ho         1 FJF       0.501000
     25 H9           3.5860   -11.0290    46.3340 h1         1 FJF       0.048700
     26 H10          4.7480   -13.0490    47.1260 ho         1 FJF       0.524000
     27 H11          5.4870    -9.7320    47.0350 h1         1 FJF       0.042700
     28 H12          5.2220   -11.0410    48.7880 ho         1 FJF       0.509000
     29 H13          8.8280    -7.0680    44.8280 hn         1 FJF       0.462000
@<TRIPOS>BOND
     1     1     2 2   
     2     2     3 1   
     3     2     8 1   
     4     3     4 1   
     5     3    29 1   
     6     4     5 2   
     7     4    18 1   
     8     5     6 1   
     9     5     9 1   
    10     6     7 2   
    11     6     8 1   
    12     8    19 1   
    13     9    10 1   
    14     9    16 1   
    15     9    20 1   
    16    10    11 1   
    17    11    12 1   
    18    11    14 1   
    19    11    21 1   
    20    12    13 1   
    21    12    22 1   
    22    12    23 1   
    23    13    24 1   
    24    14    15 1   
    25    14    16 1   
    26    14    25 1   
    27    15    26 1   
    28    16    17 1   
    29    16    27 1   
    30    17    28 1   
@<TRIPOS>SUBSTRUCTURE
     1 FJF         1 TEMP              0 ****  ****    0 ROOT
