@<TRIPOS>MOLECULE
FJG
   76    80     1     0     0
SMALL
No Charge or Current Charge


@<TRIPOS>ATOM
      1 C10         -3.8340     0.9810    -1.3490 ca         1 FJG      -0.060300
      2 C13         -5.0880     1.8770    -3.3220 c3         1 FJG      -0.055100
      3 C15         -6.2960     1.7740    -1.0020 cx         1 FJG      -0.124400
      4 C20          0.2020     2.8140    -0.2340 cc         1 FJG       0.304300
      5 C21         -0.6960     4.0050     0.0350 c3         1 FJG      -0.102700
      6 C22         -1.6630     3.8540     1.2500 c6         1 FJG      -0.056700
      7 C24         -1.8630     3.5240     3.7850 c6         1 FJG      -0.072400
      8 C26         -3.6110     4.9090     2.5410 c6         1 FJG      -0.072400
      9 C28          3.7840     1.9500    -0.3850 c          1 FJG       0.517600
     10 C01         -1.0530    -5.1600     1.3310 c3         1 FJG      -0.111100
     11 C02         -1.9210    -4.8490     0.0900 c3         1 FJG       0.049700
     12 N03         -1.9520    -3.3910    -0.1300 ns         1 FJG      -0.506900
     13 C04         -3.0630    -2.6690    -0.5180 c          1 FJG       0.623700
     14 O05         -4.1460    -3.2150    -0.6810 o          1 FJG      -0.590100
     15 C06         -2.8720    -1.1800    -0.7260 ca         1 FJG      -0.153600
     16 C07         -1.6280    -0.5350    -0.5100 ca         1 FJG      -0.075000
     17 C08         -1.4700     0.8580    -0.7020 ca         1 FJG      -0.004000
     18 C09         -2.5880     1.5950    -1.1440 ca         1 FJG      -0.064000
     19 C11         -3.9710    -0.4000    -1.1420 ca         1 FJG      -0.051000
     20 C12         -5.0090     1.8020    -1.8000 cx         1 FJG      -0.067700
     21 C14         -5.4290     3.0090    -0.9870 cx         1 FJG      -0.124400
     22 C16         -0.1430     1.4850    -0.4540 cd         1 FJG      -0.214000
     23 S17          1.3150     0.5120    -0.6340 ss         1 FJG       0.007600
     24 C18          2.2700     1.9680    -0.3840 cd         1 FJG       0.382900
     25 N19          1.5500     3.0730    -0.1850 nc         1 FJG      -0.596000
     26 C23         -0.8910     3.6730     2.5880 c6         1 FJG      -0.071900
     27 C25         -2.8390     4.7220     3.8700 c6         1 FJG      -0.075400
     28 C27         -2.6380     5.0600     1.3460 c6         1 FJG      -0.071900
     29 O29          4.4930     2.9390    -0.2090 o          1 FJG      -0.565100
     30 N30          4.3420     0.6960    -0.6070 ns         1 FJG      -0.477900
     31 C31          5.7590     0.4330    -0.6250 cy         1 FJG       0.064700
     32 C32          6.5070     0.2140     0.7380 cy         1 FJG      -0.081400
     33 C33          6.0810    -1.2990     0.5620 cy         1 FJG      -0.187700
     34 C34          6.2500    -1.0140    -0.9840 cy         1 FJG      -0.081400
     35 C35          7.4940    -1.9920     0.8460 c          1 FJG       0.724000
     36 O36          8.1540    -1.7280     1.8430 o          1 FJG      -0.732500
     37 O37          7.9070    -2.9210     0.1650 o          1 FJG      -0.732500
     38 C38         -1.4810    -5.6320    -1.1850 c3         1 FJG       0.280000
     39 F39         -2.2990    -5.3650    -2.2290 f          1 FJG      -0.112667
     40 F40         -0.2210    -5.3010    -1.5520 f          1 FJG      -0.112667
     41 F41         -1.5140    -6.9680    -0.9710 f          1 FJG      -0.112667
     42 H131        -5.1930     0.8760    -3.7570 hc         1 FJG       0.040033
     43 H132        -5.9450     2.4760    -3.6540 hc         1 FJG       0.040033
     44 H133        -4.1810     2.3320    -3.7380 hc         1 FJG       0.040033
     45 H151        -7.2370     1.8230    -1.5440 hc         1 FJG       0.072700
     46 H152        -6.3240     1.1690    -0.0990 hc         1 FJG       0.072700
     47 H212        -0.0700     4.8890     0.2120 hc         1 FJG       0.056200
     48 H211        -1.2450     4.2610    -0.8760 hc         1 FJG       0.056200
     49 H221        -2.2620     2.9500     1.0850 hc         1 FJG       0.045700
     50 H242        -2.4320     2.5890     3.6840 hc         1 FJG       0.035700
     51 H241        -1.2920     3.4420     4.7200 hc         1 FJG       0.035700
     52 H262        -4.2720     4.0470     2.3730 hc         1 FJG       0.035700
     53 H261        -4.2600     5.7920     2.6080 hc         1 FJG       0.035700
     54 H012        -1.0720    -6.2310     1.5630 hc         1 FJG       0.057033
     55 H021        -2.9420    -5.1810     0.3260 h1         1 FJG       0.106700
     56 H031        -1.0910    -2.8730    -0.0220 hn         1 FJG       0.330500
     57 H071        -0.7800    -1.1130    -0.1620 ha         1 FJG       0.124000
     58 H091        -2.5080     2.6500    -1.3590 ha         1 FJG       0.125000
     59 H111        -4.9390    -0.8660    -1.3130 ha         1 FJG       0.134000
     60 H142        -5.7860     3.8870    -1.5190 hc         1 FJG       0.072700
     61 H141        -4.8800     3.2240    -0.0730 hc         1 FJG       0.072700
     62 H231        -0.2440     2.7870     2.5350 hc         1 FJG       0.043700
     63 H232        -0.2280     4.5330     2.7570 hc         1 FJG       0.043700
     64 H251        -3.5480     4.5680     4.6950 hc         1 FJG       0.035700
     65 H252        -2.2800     5.6390     4.1050 hc         1 FJG       0.035700
     66 H272        -2.0680     5.9940     1.4520 hc         1 FJG       0.043700
     67 H271        -3.2140     5.1530     0.4150 hc         1 FJG       0.043700
     68 H301         3.6980    -0.0750    -0.7410 hn         1 FJG       0.312500
     69 H311         6.2260     1.2020    -1.2520 h1         1 FJG       0.059700
     70 H322         7.5750     0.4630     0.6790 hc         1 FJG       0.051700
     71 H321         6.0800     0.7320     1.6030 hc         1 FJG       0.051700
     72 H331         5.1560    -1.7030     0.9890 hc         1 FJG       0.030700
     73 H342         5.5960    -1.5880    -1.6500 hc         1 FJG       0.051700
     74 H341         7.2640    -1.0230    -1.4060 hc         1 FJG       0.051700
     75 H011        -0.0110    -4.8620     1.1680 hc         1 FJG       0.057033
     76 H013        -1.4310    -4.6200     2.2080 hc         1 FJG       0.057033
@<TRIPOS>BOND
     1     1    18 ar  
     2     1    19 ar  
     3     1    20 1   
     4     2    20 1   
     5     2    42 1   
     6     2    43 1   
     7     2    44 1   
     8     3    20 1   
     9     3    21 1   
    10     3    45 1   
    11     3    46 1   
    12     4     5 1   
    13     4    22 2   
    14     4    25 1   
    15     5     6 1   
    16     5    47 1   
    17     5    48 1   
    18     6    26 1   
    19     6    28 1   
    20     6    49 1   
    21     7    26 1   
    22     7    27 1   
    23     7    50 1   
    24     7    51 1   
    25     8    27 1   
    26     8    28 1   
    27     8    52 1   
    28     8    53 1   
    29     9    24 1   
    30     9    29 2   
    31     9    30 1   
    32    10    11 1   
    33    10    54 1   
    34    10    75 1   
    35    10    76 1   
    36    11    12 1   
    37    11    38 1   
    38    11    55 1   
    39    12    13 1   
    40    12    56 1   
    41    13    14 2   
    42    13    15 1   
    43    15    16 ar  
    44    15    19 ar  
    45    16    17 ar  
    46    16    57 1   
    47    17    18 ar  
    48    17    22 1   
    49    18    58 1   
    50    19    59 1   
    51    20    21 1   
    52    21    60 1   
    53    21    61 1   
    54    22    23 1   
    55    23    24 1   
    56    24    25 2   
    57    26    62 1   
    58    26    63 1   
    59    27    64 1   
    60    27    65 1   
    61    28    66 1   
    62    28    67 1   
    63    30    31 1   
    64    30    68 1   
    65    31    32 1   
    66    31    34 1   
    67    31    69 1   
    68    32    33 1   
    69    32    70 1   
    70    32    71 1   
    71    33    34 1   
    72    33    35 1   
    73    33    72 1   
    74    34    73 1   
    75    34    74 1   
    76    35    36 1   
    77    35    37 1   
    78    38    39 1   
    79    38    40 1   
    80    38    41 1   
@<TRIPOS>SUBSTRUCTURE
     1 FJG         1 TEMP              0 ****  ****    0 ROOT
