@<TRIPOS>MOLECULE
FJG
   76    80     1     0     0
SMALL
abcg2


@<TRIPOS>ATOM
      1 C10         -3.7570     1.1400    -2.0570 ca         1 FJG      -0.060300
      2 C13         -4.7320     1.9370    -4.2390 c3         1 FJG      -0.055100
      3 C15         -6.1580     2.0580    -2.0880 cx         1 FJG      -0.124400
      4 C20          0.1440     2.6960    -0.3530 cc         1 FJG       0.304300
      5 C21         -0.8390     3.6170     0.3020 c3         1 FJG      -0.102700
      6 C22         -1.3580     3.0710     1.6390 c6         1 FJG      -0.056700
      7 C24         -0.7800     2.4830     4.0290 c6         1 FJG      -0.072400
      8 C26         -3.0630     3.3790     3.4770 c6         1 FJG      -0.072400
      9 C28          3.6810     2.0850    -0.8610 c          1 FJG       0.517600
     10 C01         -2.9480    -4.2550     2.3080 c3         1 FJG      -0.111100
     11 C02         -2.8610    -4.2230     0.7890 c3         1 FJG       0.049700
     12 N03         -2.6680    -2.8770     0.3100 ns         1 FJG      -0.506900
     13 C04         -3.3350    -2.3640    -0.7460 c          1 FJG       0.623700
     14 O05         -4.1650    -2.9930    -1.3810 o          1 FJG      -0.590100
     15 C06         -3.0090    -0.9470    -1.0940 ca         1 FJG      -0.153600
     16 C07         -1.7560    -0.3940    -0.8600 ca         1 FJG      -0.075000
     17 C08         -1.4890     0.9230    -1.2300 ca         1 FJG      -0.004000
     18 C09         -2.4930     1.6730    -1.8340 ca         1 FJG      -0.064000
     19 C11         -3.9990    -0.1790    -1.6990 ca         1 FJG      -0.051000
     20 C12         -4.8080     1.9640    -2.7280 cx         1 FJG      -0.067700
     21 C14         -5.2310     3.2400    -2.0630 cx         1 FJG      -0.124400
     22 C16         -0.1710     1.5150    -0.9800 cd         1 FJG      -0.214000
     23 S17          1.2700     0.7270    -1.4810 ss         1 FJG       0.007600
     24 C18          2.1910     2.0170    -0.8120 cd         1 FJG       0.382900
     25 N19          1.4770     2.9570    -0.2790 nc         1 FJG      -0.596000
     26 C23         -0.2570     3.0050     2.6950 c6         1 FJG      -0.071900
     27 C25         -1.9590     3.3130     4.5270 c6         1 FJG      -0.075400
     28 C27         -2.5340     3.9050     2.1460 c6         1 FJG      -0.071900
     29 O29          4.2480     3.1630    -0.7970 o          1 FJG      -0.565100
     30 N30          4.3110     0.9110    -0.9920 ns         1 FJG      -0.477900
     31 C31          5.7550     0.8180    -1.0480 cy         1 FJG       0.064700
     32 C32          6.4460     0.9480     0.3290 cy         1 FJG      -0.081400
     33 C33          6.4840    -0.5890     0.4170 cy         1 FJG      -0.187700
     34 C34          6.2190    -0.6490    -1.0980 cy         1 FJG      -0.081400
     35 C35          7.7230    -1.2720     0.9840 c          1 FJG       0.724000
     36 O36          8.2680    -0.7170     1.9600 o          1 FJG      -0.732500
     37 O37          8.0740    -2.3390     0.4400 o          1 FJG      -0.732500
     38 C38         -1.7390    -5.1050     0.2610 c3         1 FJG       0.280000
     39 F39         -1.6560    -5.0590    -1.0730 f          1 FJG      -0.112667
     40 F40         -0.5410    -4.7340     0.7360 f          1 FJG      -0.112667
     41 F41         -1.9200    -6.3870     0.6030 f          1 FJG      -0.112667
     42 H131        -4.8700     0.9230    -4.6200 hc         1 FJG       0.040033
     43 H132        -5.5060     2.5670    -4.6780 hc         1 FJG       0.040033
     44 H133        -3.7650     2.2990    -4.5910 hc         1 FJG       0.040033
     45 H151        -7.0230     2.0960    -2.7390 hc         1 FJG       0.072700
     46 H152        -6.3280     1.5320    -1.1560 hc         1 FJG       0.072700
     47 H212        -0.3610     4.5870     0.4580 hc         1 FJG       0.056200
     48 H211        -1.6870     3.7930    -0.3620 hc         1 FJG       0.056200
     49 H221        -1.7290     2.0520     1.4640 hc         1 FJG       0.045700
     50 H242        -1.0960     1.4400     3.9130 hc         1 FJG       0.035700
     51 H241         0.0230     2.4820     4.7700 hc         1 FJG       0.035700
     52 H262        -3.4800     2.3770     3.3290 hc         1 FJG       0.035700
     53 H261        -3.8860     4.0070     3.8280 hc         1 FJG       0.035700
     54 H012        -3.1140    -5.2660     2.6750 hc         1 FJG       0.057033
     55 H021        -3.7920    -4.6090     0.3690 h1         1 FJG       0.106700
     56 H031        -2.1030    -2.2650     0.8770 hn         1 FJG       0.330500
     57 H071        -0.9690    -0.9760    -0.3950 ha         1 FJG       0.124000
     58 H091        -2.2890     2.6880    -2.1540 ha         1 FJG       0.125000
     59 H111        -4.9770    -0.6080    -1.8820 ha         1 FJG       0.134000
     60 H142        -5.4590     4.0900    -2.6950 hc         1 FJG       0.072700
     61 H141        -4.7760     3.5010    -1.1150 hc         1 FJG       0.072700
     62 H231         0.5700     2.3800     2.3480 hc         1 FJG       0.043700
     63 H232         0.1560     4.0120     2.8380 hc         1 FJG       0.043700
     64 H251        -2.3460     2.9000     5.4620 hc         1 FJG       0.035700
     65 H252        -1.6150     4.3280     4.7560 hc         1 FJG       0.035700
     66 H272        -2.2120     4.9460     2.2660 hc         1 FJG       0.043700
     67 H271        -3.3330     3.9110     1.3980 hc         1 FJG       0.043700
     68 H301         3.7920     0.0520    -0.8950 hn         1 FJG       0.312500
     69 H311         6.1240     1.4740    -1.8380 h1         1 FJG       0.059700
     70 H322         7.4450     1.3730     0.2280 hc         1 FJG       0.051700
     71 H321         5.9090     1.5010     1.1000 hc         1 FJG       0.051700
     72 H331         5.6100    -0.9590     0.9670 hc         1 FJG       0.030700
     73 H342         5.5040    -1.3820    -1.4770 hc         1 FJG       0.051700
     74 H341         7.1410    -0.7460    -1.6700 hc         1 FJG       0.051700
     75 H011        -2.0460    -3.8630     2.7790 hc         1 FJG       0.057033
     76 H013        -3.7910    -3.6450     2.6290 hc         1 FJG       0.057033
@<TRIPOS>BOND
     1     1    18 ar  
     2     1    19 ar  
     3     1    20 1   
     4     2    20 1   
     5     2    42 1   
     6     2    43 1   
     7     2    44 1   
     8     3    20 1   
     9     3    21 1   
    10     3    45 1   
    11     3    46 1   
    12     4     5 1   
    13     4    22 2   
    14     4    25 1   
    15     5     6 1   
    16     5    47 1   
    17     5    48 1   
    18     6    26 1   
    19     6    28 1   
    20     6    49 1   
    21     7    26 1   
    22     7    27 1   
    23     7    50 1   
    24     7    51 1   
    25     8    27 1   
    26     8    28 1   
    27     8    52 1   
    28     8    53 1   
    29     9    24 1   
    30     9    29 2   
    31     9    30 1   
    32    10    11 1   
    33    10    54 1   
    34    10    75 1   
    35    10    76 1   
    36    11    12 1   
    37    11    38 1   
    38    11    55 1   
    39    12    13 1   
    40    12    56 1   
    41    13    14 2   
    42    13    15 1   
    43    15    16 ar  
    44    15    19 ar  
    45    16    17 ar  
    46    16    57 1   
    47    17    18 ar  
    48    17    22 1   
    49    18    58 1   
    50    19    59 1   
    51    20    21 1   
    52    21    60 1   
    53    21    61 1   
    54    22    23 1   
    55    23    24 1   
    56    24    25 2   
    57    26    62 1   
    58    26    63 1   
    59    27    64 1   
    60    27    65 1   
    61    28    66 1   
    62    28    67 1   
    63    30    31 1   
    64    30    68 1   
    65    31    32 1   
    66    31    34 1   
    67    31    69 1   
    68    32    33 1   
    69    32    70 1   
    70    32    71 1   
    71    33    34 1   
    72    33    35 1   
    73    33    72 1   
    74    34    73 1   
    75    34    74 1   
    76    35    36 1   
    77    35    37 1   
    78    38    39 1   
    79    38    40 1   
    80    38    41 1   
@<TRIPOS>SUBSTRUCTURE
     1 FJG         1 TEMP              0 ****  ****    0 ROOT
