@<TRIPOS>MOLECULE
FJH
   57    61     1     0     0
SMALL
No Charge or Current Charge


@<TRIPOS>ATOM
      1 C1          -8.7540     2.0470    -0.1690 ca         1 FJH       0.384300
      2 N2          -8.2790     0.7950    -0.3490 nb         1 FJH      -0.674000
      3 C3          -6.5470     2.9200     0.3060 ca         1 FJH      -0.049000
      4 C4          -6.0500     1.6180     0.1180 ca         1 FJH      -0.102000
      5 C5          -4.6720     1.3620     0.2560 ca         1 FJH      -0.024000
      6 C6          -4.1550     0.0600     0.0710 ca         1 FJH      -0.161600
      7 C8          -0.9530    -2.0990     0.0610 ca         1 FJH      -0.001000
      8 C9           0.2460    -1.3520     0.0310 ca         1 FJH      -0.173000
      9 C11          4.0170    -1.4200    -0.0080 c          1 FJH       0.626700
     10 C12          4.9330    -0.2080    -0.0300 ca         1 FJH      -0.160600
     11 C13          4.4320     1.1210    -0.0280 ca         1 FJH      -0.083000
     12 C14          5.3120     2.2180    -0.0430 ca         1 FJH      -0.122000
     13 C15          6.6980     2.0130    -0.0590 ca         1 FJH       0.085100
     14 C16          8.9370     2.8610     0.2530 c6         1 FJH       0.117600
     15 C17          9.4220     1.5900    -0.4780 c6         1 FJH       0.116600
     16 C19          6.3350    -0.4010    -0.0580 ca         1 FJH      -0.051000
     17 C10          1.5030    -1.9840     0.0460 ca         1 FJH       0.001000
     18 C18          7.2120     0.6950    -0.0840 ca         1 FJH       0.043100
     19 C20          1.5580    -3.3910     0.0880 ca         1 FJH      -0.144000
     20 C22         -0.8820    -3.5110     0.0900 ca         1 FJH      -0.142300
     21 C23         -2.1480    -4.3660     0.1110 c3         1 FJH      -0.041800
     22 C24         -5.0580    -0.9810    -0.2570 ca         1 FJH      -0.088000
     23 C25         -6.4330    -0.7170    -0.3930 ca         1 FJH      -0.088000
     24 C26         -6.9500     0.5760    -0.2100 ca         1 FJH       0.292000
     25 O1           4.4770    -2.5570    -0.0140 o          1 FJH      -0.580100
     26 O3           8.5750     0.4710    -0.1320 os         1 FJH      -0.324100
     27 O2           7.5460     3.1030    -0.0520 os         1 FJH      -0.328100
     28 N1           2.6540    -1.1470     0.0160 ns         1 FJH      -0.142000
     29 C21          0.3740    -4.1450     0.1070 ca         1 FJH      -0.067000
     30 N           -2.2390    -1.4870     0.0370 ns         1 FJH      -0.153000
     31 C7          -2.6630    -0.1780     0.2290 c          1 FJH       0.619700
     32 O           -1.9040     0.7410     0.5200 o          1 FJH      -0.582100
     33 C2          -7.9260     3.1330     0.1600 ca         1 FJH      -0.167000
     34 C          -10.2510     2.2240    -0.3340 c3         1 FJH      -0.152400
     35 H1          -5.8850     3.7460     0.5600 ha         1 FJH       0.124000
     36 H2          -4.0030     2.1820     0.5090 ha         1 FJH       0.138000
     37 H3           0.2190    -0.2690    -0.0190 ha         1 FJH       0.130000
     38 H4           3.3640     1.3250    -0.0100 ha         1 FJH       0.118000
     39 H5           4.9170     3.2320    -0.0320 ha         1 FJH       0.132000
     40 H6           9.0470     2.7230     1.3380 h1         1 FJH       0.070200
     41 H7           9.5340     3.7330    -0.0460 h1         1 FJH       0.070200
     42 H8           9.3740     1.7520    -1.5640 h1         1 FJH       0.070700
     43 H9          10.4620     1.3580    -0.2080 h1         1 FJH       0.070700
     44 H10          6.7550    -1.4050    -0.0680 ha         1 FJH       0.151000
     45 H11          2.5030    -3.9240     0.1050 ha         1 FJH       0.150000
     46 H12         -2.7450    -4.2100    -0.7960 hc         1 FJH       0.040033
     47 H13         -1.9170    -5.4360     0.1690 hc         1 FJH       0.040033
     48 H14         -2.7770    -4.1210     0.9760 hc         1 FJH       0.040033
     49 H15         -4.7180    -2.0020    -0.4120 ha         1 FJH       0.116000
     50 H16         -7.1100    -1.5280    -0.6460 ha         1 FJH       0.135000
     51 H17          2.4330    -0.1610     0.0130 hn         1 FJH       0.156000
     52 H18          0.4380    -5.2310     0.1350 ha         1 FJH       0.114000
     53 H19         -2.9880    -2.1360    -0.1600 hn         1 FJH       0.157000
     54 H20         -8.3480     4.1240     0.3000 ha         1 FJH       0.125000
     55 H21        -10.7790     1.9240     0.5780 hc         1 FJH       0.055367
     56 H22        -10.5080     3.2690    -0.5420 hc         1 FJH       0.055367
     57 H23        -10.6360     1.6180    -1.1620 hc         1 FJH       0.055367
@<TRIPOS>BOND
     1     1     2 ar  
     2     1    33 ar  
     3     1    34 1   
     4     2    24 ar  
     5     3     4 ar  
     6     3    33 ar  
     7     3    35 1   
     8     4     5 ar  
     9     4    24 ar  
    10     5     6 ar  
    11     5    36 1   
    12     6    22 ar  
    13     6    31 1   
    14     7     8 ar  
    15     7    20 ar  
    16     7    30 1   
    17     8    17 ar  
    18     8    37 1   
    19     9    10 1   
    20     9    25 2   
    21     9    28 1   
    22    10    11 ar  
    23    10    16 ar  
    24    11    12 ar  
    25    11    38 1   
    26    12    13 ar  
    27    12    39 1   
    28    13    18 ar  
    29    13    27 1   
    30    14    15 1   
    31    14    27 1   
    32    14    40 1   
    33    14    41 1   
    34    15    26 1   
    35    15    42 1   
    36    15    43 1   
    37    16    18 ar  
    38    16    44 1   
    39    17    19 ar  
    40    17    28 1   
    41    18    26 1   
    42    19    29 ar  
    43    19    45 1   
    44    20    21 1   
    45    20    29 ar  
    46    21    46 1   
    47    21    47 1   
    48    21    48 1   
    49    22    23 ar  
    50    22    49 1   
    51    23    24 ar  
    52    23    50 1   
    53    28    51 1   
    54    29    52 1   
    55    30    31 1   
    56    30    53 1   
    57    31    32 2   
    58    33    54 1   
    59    34    55 1   
    60    34    56 1   
    61    34    57 1   
@<TRIPOS>SUBSTRUCTURE
     1 FJH         1 TEMP              0 ****  ****    0 ROOT
