@<TRIPOS>MOLECULE
FJH
   57    61     1     0     0
SMALL
abcg2


@<TRIPOS>ATOM
      1 C1          -8.5800     2.0340    -0.0950 ca         1 FJH       0.384300
      2 N2          -7.9550     1.1760    -0.8600 nb         1 FJH      -0.674000
      3 C3          -6.6840     2.3050     1.3590 ca         1 FJH      -0.049000
      4 C4          -5.9860     1.3800     0.5470 ca         1 FJH      -0.102000
      5 C5          -4.6590     0.9910     0.8000 ca         1 FJH      -0.024000
      6 C6          -4.0270     0.0780    -0.0100 ca         1 FJH      -0.161600
      7 C8          -0.9490    -2.0850     0.0410 ca         1 FJH      -0.001000
      8 C9           0.2090    -1.3270    -0.0440 ca         1 FJH      -0.173000
      9 C11          3.8790    -1.3180     0.2050 c          1 FJH       0.626700
     10 C12          4.8050    -0.2010    -0.1370 ca         1 FJH      -0.160600
     11 C13          4.5050     0.7760    -1.0850 ca         1 FJH      -0.083000
     12 C14          5.4220     1.7700    -1.3780 ca         1 FJH      -0.122000
     13 C15          6.6530     1.8050    -0.7370 ca         1 FJH       0.085100
     14 C16          8.6130     2.9330    -0.1540 c6         1 FJH       0.117600
     15 C17          9.1680     1.5750     0.1970 c6         1 FJH       0.116600
     16 C19          6.0520    -0.1830     0.4820 ca         1 FJH      -0.051000
     17 C10          1.4640    -1.9140     0.1180 ca         1 FJH       0.001000
     18 C18          6.9720     0.8100     0.1980 ca         1 FJH       0.043100
     19 C20          1.5460    -3.2840     0.3580 ca         1 FJH      -0.144000
     20 C22         -0.8840    -3.4650     0.2770 ca         1 FJH      -0.142300
     21 C23         -2.1230    -4.3060     0.3670 c3         1 FJH      -0.041800
     22 C24         -4.7160    -0.4500    -1.1270 ca         1 FJH      -0.088000
     23 C25         -6.0050    -0.0800    -1.3970 ca         1 FJH      -0.088000
     24 C26         -6.6770     0.8400    -0.5630 ca         1 FJH       0.292000
     25 O1           4.2960    -2.3740     0.6520 o          1 FJH      -0.580100
     26 O3           8.1680     0.7870     0.8280 os         1 FJH      -0.324100
     27 O2           7.5100     2.7990    -1.0420 os         1 FJH      -0.328100
     28 N1           2.5640    -1.0600    -0.0110 ns         1 FJH      -0.142000
     29 C21          0.3760    -4.0260     0.4230 ca         1 FJH      -0.067000
     30 N           -2.2130    -1.5020    -0.1460 ns         1 FJH      -0.153000
     31 C7          -2.6190    -0.2940     0.3230 c          1 FJH       0.619700
     32 O           -1.9090     0.4390     0.9880 o          1 FJH      -0.582100
     33 C2          -7.9670     2.6300     1.0410 ca         1 FJH      -0.167000
     34 C           -9.9890     2.3990    -0.4390 c3         1 FJH      -0.152400
     35 H1          -6.1930     2.7430     2.2190 ha         1 FJH       0.124000
     36 H2          -4.1400     1.4130     1.6520 ha         1 FJH       0.138000
     37 H3           0.1460    -0.2680    -0.2570 ha         1 FJH       0.130000
     38 H4           3.5700     0.7690    -1.6300 ha         1 FJH       0.118000
     39 H5           5.1910     2.5290    -2.1140 ha         1 FJH       0.132000
     40 H6           8.2990     3.4640     0.7500 h1         1 FJH       0.070200
     41 H7           9.3640     3.5330    -0.6640 h1         1 FJH       0.070200
     42 H8           9.5340     1.0660    -0.7010 h1         1 FJH       0.070700
     43 H9           9.9930     1.6710     0.9000 h1         1 FJH       0.070700
     44 H10          6.3160    -0.9490     1.2010 ha         1 FJH       0.151000
     45 H11          2.4930    -3.7790     0.4910 ha         1 FJH       0.150000
     46 H12         -2.6480    -4.3700    -0.5900 hc         1 FJH       0.040033
     47 H13         -1.8750    -5.3240     0.6610 hc         1 FJH       0.040033
     48 H14         -2.8310    -3.9130     1.0990 hc         1 FJH       0.040033
     49 H15         -4.2260    -1.1340    -1.8080 ha         1 FJH       0.116000
     50 H16         -6.5260    -0.4780    -2.2570 ha         1 FJH       0.135000
     51 H17          2.3250    -0.1090    -0.2470 hn         1 FJH       0.156000
     52 H18          0.4540    -5.0910     0.6040 ha         1 FJH       0.114000
     53 H19         -2.9180    -2.1040    -0.5430 hn         1 FJH       0.157000
     54 H20         -8.5290     3.3340     1.6410 ha         1 FJH       0.125000
     55 H21        -10.6570     2.2090     0.4030 hc         1 FJH       0.055367
     56 H22        -10.0650     3.4630    -0.6700 hc         1 FJH       0.055367
     57 H23        -10.3400     1.8320    -1.2980 hc         1 FJH       0.055367
@<TRIPOS>BOND
     1     1     2 ar  
     2     1    33 ar  
     3     1    34 1   
     4     2    24 ar  
     5     3     4 ar  
     6     3    33 ar  
     7     3    35 1   
     8     4     5 ar  
     9     4    24 ar  
    10     5     6 ar  
    11     5    36 1   
    12     6    22 ar  
    13     6    31 1   
    14     7     8 ar  
    15     7    20 ar  
    16     7    30 1   
    17     8    17 ar  
    18     8    37 1   
    19     9    10 1   
    20     9    25 2   
    21     9    28 1   
    22    10    11 ar  
    23    10    16 ar  
    24    11    12 ar  
    25    11    38 1   
    26    12    13 ar  
    27    12    39 1   
    28    13    18 ar  
    29    13    27 1   
    30    14    15 1   
    31    14    27 1   
    32    14    40 1   
    33    14    41 1   
    34    15    26 1   
    35    15    42 1   
    36    15    43 1   
    37    16    18 ar  
    38    16    44 1   
    39    17    19 ar  
    40    17    28 1   
    41    18    26 1   
    42    19    29 ar  
    43    19    45 1   
    44    20    21 1   
    45    20    29 ar  
    46    21    46 1   
    47    21    47 1   
    48    21    48 1   
    49    22    23 ar  
    50    22    49 1   
    51    23    24 ar  
    52    23    50 1   
    53    28    51 1   
    54    29    52 1   
    55    30    31 1   
    56    30    53 1   
    57    31    32 2   
    58    33    54 1   
    59    34    55 1   
    60    34    56 1   
    61    34    57 1   
@<TRIPOS>SUBSTRUCTURE
     1 FJH         1 TEMP              0 ****  ****    0 ROOT
