@<TRIPOS>MOLECULE
FJI
   75    80     1     0     0
SMALL
bcc


@<TRIPOS>ATOM
      1 CAH        -11.2590    -0.7130    -1.2900 c6         1 FJI       0.125800
      2 CBA        -12.4660    -0.4880    -2.1810 c6         1 FJI       0.129900
      3 OBN        -13.4930     0.2020    -1.5050 os         1 FJI      -0.402600
      4 CBI        -13.0220     1.4380    -1.0140 c6         1 FJI       0.129900
      5 CBB        -11.8310     1.2550    -0.0930 c6         1 FJI       0.125800
      6 NAC        -10.7630     0.5580    -0.7910 n3         1 FJI      -0.713600
      7 CBG         -9.5850     0.4200     0.0390 c3         1 FJI       0.152800
      8 CBH         -8.3380     0.1230    -0.7820 c3         1 FJI       0.102000
      9 NAA         -7.1880     0.0640     0.0960 ns         1 FJI      -0.573900
     10 CAX         -5.9420    -0.1170    -0.3660 c          1 FJI       0.678700
     11 OBP         -5.6860    -0.2460    -1.5550 o          1 FJI      -0.590100
     12 CBE         -4.8600    -0.1490     0.6670 ca         1 FJI      -0.153600
     13 CAE         -3.7280    -0.9110     0.4110 ca         1 FJI      -0.031000
     14 CBC         -2.6730    -0.9530     1.3170 ca         1 FJI      -0.148600
     15 CAP         -1.5290    -1.8590     1.0000 c          1 FJI       0.607300
     16 OBQ         -1.7750    -2.8820     0.3810 o          1 FJI      -0.535100
     17 CAG         -4.9350     0.5810     1.8500 ca         1 FJI      -0.090000
     18 CAW         -3.8840     0.5490     2.7520 ca         1 FJI      -0.129000
     19 CAO         -2.7510    -0.2100     2.4950 ca         1 FJI      -0.070300
     20 CBD         -1.6100    -0.2310     3.4590 c3         1 FJI       0.183700
     21 OBO         -0.4570     0.3510     2.8730 os         1 FJI      -0.318900
     22 CAF          0.3260    -0.4230     2.1000 ca         1 FJI       0.229100
     23 CAL          1.6740    -0.1010     2.1500 ca         1 FJI      -0.265000
     24 CAK         -0.1340    -1.4980     1.3120 ca         1 FJI      -0.291600
     25 CAJ          0.8570    -2.2350     0.6350 ca         1 FJI      -0.008000
     26 CAQ          2.1910    -1.9310     0.6760 ca         1 FJI      -0.241000
     27 CAV          2.6280    -0.8310     1.4390 ca         1 FJI       0.255600
     28 NAB          3.9330    -0.4410     1.5040 nu         1 FJI      -0.655000
     29 CAN          5.0590    -1.1490     1.0720 ca         1 FJI       0.166600
     30 CBF          6.0850    -0.4370     0.4550 ca         1 FJI      -0.152000
     31 CAS          5.1940    -2.5200     1.2790 ca         1 FJI      -0.153000
     32 CAU          6.3350    -3.1730     0.8420 ca         1 FJI      -0.124000
     33 CBL          7.3460    -2.4500     0.2490 ca         1 FJI       0.069900
     34 FBR          8.4600    -3.0810    -0.1580 f          1 FJI      -0.146900
     35 CAI          7.2530    -1.0760     0.0540 ca         1 FJI       0.056600
     36 NAD          8.3060    -0.4090    -0.5800 ns         1 FJI      -0.475100
     37 CAM          8.7720     0.8230    -0.2370 c          1 FJI       0.689700
     38 OBM          8.3160     1.4740     0.6850 o          1 FJI      -0.577100
     39 CBK          9.9030     1.3270    -1.0690 ca         1 FJI      -0.157600
     40 CAR         10.7720     2.2540    -0.4960 ca         1 FJI      -0.087000
     41 CAY         11.8340     2.7620    -1.2280 ca         1 FJI      -0.136500
     42 CAZ         12.0250     2.3640    -2.5460 ca         1 FJI      -0.102000
     43 CAT         11.1520     1.4540    -3.1270 ca         1 FJI      -0.136500
     44 CBJ         10.0970     0.9340    -2.3920 ca         1 FJI      -0.087000
     45 H1         -11.5260    -1.3940    -0.4640 h1         1 FJI       0.042200
     46 H2         -10.4910    -1.2150    -1.8820 h1         1 FJI       0.042200
     47 H3         -12.1540     0.0680    -3.0760 h1         1 FJI       0.052950
     48 H4         -12.8730    -1.4460    -2.5060 h1         1 FJI       0.052950
     49 H5         -12.7390     2.0990    -1.8450 h1         1 FJI       0.052950
     50 H6         -13.8430     1.9110    -0.4730 h1         1 FJI       0.052950
     51 H7         -11.4770     2.2390     0.2230 h1         1 FJI       0.042200
     52 H8         -12.1470     0.7150     0.8160 h1         1 FJI       0.042200
     53 H10         -9.4290     1.3660     0.5640 h1         1 FJI       0.033200
     54 H11         -9.7140    -0.3550     0.8130 h1         1 FJI       0.033200
     55 H12         -8.4370    -0.8190    -1.3290 h1         1 FJI       0.061200
     56 H13         -8.1990     0.9140    -1.5220 h1         1 FJI       0.061200
     57 H14         -7.3540    -0.0060     1.0870 hn         1 FJI       0.312500
     58 H15         -3.6700    -1.4800    -0.5080 ha         1 FJI       0.171000
     59 H16         -5.7940     1.2030     2.0690 ha         1 FJI       0.134000
     60 H17         -3.9440     1.1280     3.6650 ha         1 FJI       0.137000
     61 H18         -1.8390     0.3700     4.3370 h1         1 FJI       0.067200
     62 H19         -1.3900    -1.2490     3.8000 h1         1 FJI       0.067200
     63 H20          1.9850     0.7260     2.7780 ha         1 FJI       0.148000
     64 H21          0.5430    -3.0640     0.0160 ha         1 FJI       0.152000
     65 H22          2.8850    -2.5140     0.0890 ha         1 FJI       0.147000
     66 H23          4.1090     0.4740     1.8870 hn         1 FJI       0.449800
     67 H24          5.9590     0.6210     0.2750 ha         1 FJI       0.161000
     68 H25          4.4250    -3.0820     1.7900 ha         1 FJI       0.152000
     69 H26          6.4520    -4.2380     0.9930 ha         1 FJI       0.154000
     70 H27          8.8540    -0.9510    -1.2300 hn         1 FJI       0.334500
     71 H28         10.6230     2.5720     0.5270 ha         1 FJI       0.142500
     72 H29         12.5110     3.4710    -0.7710 ha         1 FJI       0.137500
     73 H30         12.8490     2.7670    -3.1200 ha         1 FJI       0.135000
     74 H31         11.2890     1.1510    -4.1570 ha         1 FJI       0.137500
     75 H32          9.4170     0.2430    -2.8740 ha         1 FJI       0.142500
@<TRIPOS>BOND
     1     1     2 1   
     2     1     6 1   
     3     1    45 1   
     4     1    46 1   
     5     2     3 1   
     6     2    47 1   
     7     2    48 1   
     8     3     4 1   
     9     4     5 1   
    10     4    49 1   
    11     4    50 1   
    12     5     6 1   
    13     5    51 1   
    14     5    52 1   
    15     6     7 1   
    16     7     8 1   
    17     7    53 1   
    18     7    54 1   
    19     8     9 1   
    20     8    55 1   
    21     8    56 1   
    22     9    10 1   
    23     9    57 1   
    24    10    11 2   
    25    10    12 1   
    26    12    13 ar  
    27    12    17 ar  
    28    13    14 ar  
    29    13    58 1   
    30    14    15 1   
    31    14    19 ar  
    32    15    16 2   
    33    15    24 1   
    34    17    18 ar  
    35    17    59 1   
    36    18    19 ar  
    37    18    60 1   
    38    19    20 1   
    39    20    21 1   
    40    20    61 1   
    41    20    62 1   
    42    21    22 1   
    43    22    23 ar  
    44    22    24 ar  
    45    23    27 ar  
    46    23    63 1   
    47    24    25 ar  
    48    25    26 ar  
    49    25    64 1   
    50    26    27 ar  
    51    26    65 1   
    52    27    28 1   
    53    28    29 1   
    54    28    66 1   
    55    29    30 ar  
    56    29    31 ar  
    57    30    35 ar  
    58    30    67 1   
    59    31    32 ar  
    60    31    68 1   
    61    32    33 ar  
    62    32    69 1   
    63    33    34 1   
    64    33    35 ar  
    65    35    36 1   
    66    36    37 1   
    67    36    70 1   
    68    37    38 2   
    69    37    39 1   
    70    39    40 ar  
    71    39    44 ar  
    72    40    41 ar  
    73    40    71 1   
    74    41    42 ar  
    75    41    72 1   
    76    42    43 ar  
    77    42    73 1   
    78    43    44 ar  
    79    43    74 1   
    80    44    75 1   
@<TRIPOS>SUBSTRUCTURE
     1 FJI         1 TEMP              0 ****  ****    0 ROOT
