@<TRIPOS>MOLECULE
FJI
   75    80     1     0     0
SMALL
No Charge or Current Charge


@<TRIPOS>ATOM
      1 CAH        -10.6890     0.3880    -2.1840 c6         1 FJI       0.125800
      2 CBA        -12.0940     0.5820    -2.8310 c6         1 FJI       0.153100
      3 OBN        -13.0060    -0.4470    -2.3760 os         1 FJI      -0.449000
      4 CBI        -13.1560    -0.4600    -0.9360 c6         1 FJI       0.153100
      5 CBB        -11.7740    -0.6800    -0.2510 c6         1 FJI       0.125800
      6 NAC        -10.7660     0.3370    -0.6870 n3         1 FJI      -0.713600
      7 CBG         -9.4500     0.1460    -0.0240 c3         1 FJI       0.152800
      8 CBH         -8.4250     1.2850    -0.2610 c3         1 FJI       0.102000
      9 NAA         -7.1940     1.1240     0.5270 ns         1 FJI      -0.506900
     10 CAX         -6.2130     0.1900     0.2700 c          1 FJI       0.611700
     11 OBP         -6.2970    -0.5700    -0.6850 o          1 FJI      -0.590100
     12 CBE         -5.0360     0.1600     1.2220 ca         1 FJI      -0.153600
     13 CAE         -3.9990    -0.7760     1.0070 ca         1 FJI      -0.013000
     14 CBC         -2.8770    -0.8340     1.8600 ca         1 FJI      -0.148600
     15 CAP         -1.8050    -1.8540     1.5880 c          1 FJI       0.607300
     16 OBQ         -2.1310    -3.0060     1.3260 o          1 FJI      -0.535100
     17 CAG         -4.9320     1.0370     2.3270 ca         1 FJI      -0.072000
     18 CAW         -3.8260     0.9650     3.1890 ca         1 FJI      -0.111000
     19 CAO         -2.8010     0.0280     2.9630 ca         1 FJI      -0.070300
     20 CBD         -1.6340    -0.0770     3.9200 c3         1 FJI       0.206900
     21 OBO         -0.4580     0.3780     3.2470 os         1 FJI      -0.342100
     22 CAF          0.2190    -0.3860     2.3250 ca         1 FJI       0.229100
     23 CAL          1.5730    -0.0620     2.1680 ca         1 FJI      -0.247000
     24 CAK         -0.3430    -1.4660     1.5910 ca         1 FJI      -0.291600
     25 CAJ          0.5090    -2.2070     0.7400 ca         1 FJI       0.010000
     26 CAQ          1.8650    -1.8770     0.6110 ca         1 FJI      -0.223000
     27 CAV          2.4010    -0.8060     1.3300 ca         1 FJI       0.394000
     28 NAB          3.7380    -0.4390     1.2060 nu         1 FJI      -0.987000
     29 CAN          4.8950    -1.1280     0.8330 ca         1 FJI       0.305000
     30 CBF          5.9850    -0.4040     0.3180 ca         1 FJI      -0.134000
     31 CAS          5.0030    -2.5200     1.0010 ca         1 FJI      -0.135000
     32 CAU          6.1820    -3.1870     0.6300 ca         1 FJI      -0.106000
     33 CBL          7.2590    -2.4610     0.1010 ca         1 FJI       0.105000
     34 FBR          8.3870    -3.1210    -0.2510 f          1 FJI      -0.182000
     35 CAI          7.1800    -1.0620    -0.0580 ca         1 FJI      -0.036000
     36 NAD          8.3160    -0.3890    -0.5960 ns         1 FJI      -0.149000
     37 CAM          8.6020     0.9530    -0.8180 c          1 FJI       0.622700
     38 OBM          7.8270     1.8600    -0.5350 o          1 FJI      -0.577100
     39 CBK          9.9580     1.2460    -1.4390 ca         1 FJI      -0.157600
     40 CAR         10.3310     2.5870    -1.6960 ca         1 FJI      -0.069000
     41 CAY         11.5770     2.8920    -2.2690 ca         1 FJI      -0.118500
     42 CAZ         12.4730     1.8640    -2.5960 ca         1 FJI      -0.084000
     43 CAT         12.1210     0.5280    -2.3490 ca         1 FJI      -0.118500
     44 CBJ         10.8760     0.2170    -1.7750 ca         1 FJI      -0.069000
     45 H1         -10.2480    -0.5410    -2.5760 h1         1 FJI       0.042200
     46 H2         -10.0450     1.2150    -2.5140 h1         1 FJI       0.042200
     47 H3         -12.4970     1.5690    -2.5620 h1         1 FJI       0.052950
     48 H4         -12.0130     0.5330    -3.9260 h1         1 FJI       0.052950
     49 H5         -13.5900     0.4950    -0.6070 h1         1 FJI       0.052950
     50 H6         -13.8470    -1.2660    -0.6520 h1         1 FJI       0.052950
     51 H7         -11.9110    -0.6380     0.8390 h1         1 FJI       0.042200
     52 H8         -11.4210    -1.6940    -0.4920 h1         1 FJI       0.042200
     53 H10         -9.6050     0.0680     1.0610 h1         1 FJI       0.033200
     54 H11         -9.0050    -0.8030    -0.3510 h1         1 FJI       0.033200
     55 H12         -8.1560     1.3290    -1.3250 h1         1 FJI       0.061200
     56 H13         -8.8870     2.2430     0.0090 h1         1 FJI       0.061200
     57 H14         -7.0580     1.7230     1.3300 hn         1 FJI       0.312500
     58 H15         -4.0570    -1.4610     0.1620 ha         1 FJI       0.153000
     59 H16         -5.7010     1.7750     2.5400 ha         1 FJI       0.116000
     60 H17         -3.7710     1.6390     4.0420 ha         1 FJI       0.119000
     61 H18         -1.8260     0.5500     4.7990 h1         1 FJI       0.067200
     62 H19         -1.5150    -1.1100     4.2730 h1         1 FJI       0.067200
     63 H20          1.9860     0.7670     2.7340 ha         1 FJI       0.130000
     64 H21          0.1170    -3.0320     0.1470 ha         1 FJI       0.134000
     65 H22          2.4870    -2.4430    -0.0750 ha         1 FJI       0.129000
     66 H23          3.9020     0.5410     1.4380 hn         1 FJI       0.505000
     67 H24          5.8770     0.6680     0.2050 ha         1 FJI       0.143000
     68 H25          4.1830    -3.0850     1.4340 ha         1 FJI       0.134000
     69 H26          6.2640    -4.2640     0.7580 ha         1 FJI       0.136000
     70 H27          9.0590    -1.0170    -0.8690 hn         1 FJI       0.168000
     71 H28          9.6530     3.4030    -1.4510 ha         1 FJI       0.124500
     72 H29         11.8480     3.9280    -2.4600 ha         1 FJI       0.119500
     73 H30         13.4380     2.1010    -3.0400 ha         1 FJI       0.117000
     74 H31         12.8160    -0.2700    -2.6020 ha         1 FJI       0.119500
     75 H32         10.6430    -0.8310    -1.6010 ha         1 FJI       0.124500
@<TRIPOS>BOND
     1     1     2 1   
     2     1     6 1   
     3     1    45 1   
     4     1    46 1   
     5     2     3 1   
     6     2    47 1   
     7     2    48 1   
     8     3     4 1   
     9     4     5 1   
    10     4    49 1   
    11     4    50 1   
    12     5     6 1   
    13     5    51 1   
    14     5    52 1   
    15     6     7 1   
    16     7     8 1   
    17     7    53 1   
    18     7    54 1   
    19     8     9 1   
    20     8    55 1   
    21     8    56 1   
    22     9    10 1   
    23     9    57 1   
    24    10    11 2   
    25    10    12 1   
    26    12    13 ar  
    27    12    17 ar  
    28    13    14 ar  
    29    13    58 1   
    30    14    15 1   
    31    14    19 ar  
    32    15    16 2   
    33    15    24 1   
    34    17    18 ar  
    35    17    59 1   
    36    18    19 ar  
    37    18    60 1   
    38    19    20 1   
    39    20    21 1   
    40    20    61 1   
    41    20    62 1   
    42    21    22 1   
    43    22    23 ar  
    44    22    24 ar  
    45    23    27 ar  
    46    23    63 1   
    47    24    25 ar  
    48    25    26 ar  
    49    25    64 1   
    50    26    27 ar  
    51    26    65 1   
    52    27    28 1   
    53    28    29 1   
    54    28    66 1   
    55    29    30 ar  
    56    29    31 ar  
    57    30    35 ar  
    58    30    67 1   
    59    31    32 ar  
    60    31    68 1   
    61    32    33 ar  
    62    32    69 1   
    63    33    34 1   
    64    33    35 ar  
    65    35    36 1   
    66    36    37 1   
    67    36    70 1   
    68    37    38 2   
    69    37    39 1   
    70    39    40 ar  
    71    39    44 ar  
    72    40    41 ar  
    73    40    71 1   
    74    41    42 ar  
    75    41    72 1   
    76    42    43 ar  
    77    42    73 1   
    78    43    44 ar  
    79    43    74 1   
    80    44    75 1   
@<TRIPOS>SUBSTRUCTURE
     1 FJI         1 TEMP              0 ****  ****    0 ROOT
