@<TRIPOS>MOLECULE
FJJ
   96    97     1     0     0
SMALL
bcc


@<TRIPOS>ATOM
      1 C1          -2.1480    -0.7340     1.7150 c3         1 FJJ       0.090700
      2 C2          -0.9490    -1.4900     1.1070 c3         1 FJJ       0.102100
      3 C3           0.2180    -0.5560     0.7150 c3         1 FJJ       0.114100
      4 C4           1.5530    -1.2910     0.6200 c3         1 FJJ      -0.108400
      5 C5           2.6990    -0.3750     0.2030 c3         1 FJJ      -0.066400
      6 C6           4.0200    -1.1250     0.1850 c3         1 FJJ      -0.160400
      7 C11         13.7910     0.6970    -1.9400 ca         1 FJJ      -0.126500
      8 C25         -8.4240     7.8630    -1.6490 c3         1 FJJ      -0.089100
      9 C24         -8.0640     6.7800    -0.6410 c3         1 FJJ      -0.074400
     10 C23         -6.7080     6.1430    -0.9180 c3         1 FJJ      -0.076400
     11 C22         -6.3350     5.0580     0.0840 c3         1 FJJ      -0.073400
     12 C21         -4.9810     4.4190    -0.1960 c3         1 FJJ      -0.076400
     13 C20         -4.6210     3.3390     0.8150 c3         1 FJJ      -0.072400
     14 C19         -3.2780     2.6820     0.5100 c3         1 FJJ      -0.151400
     15 O2          -3.0730     1.7330     2.7010 o          1 FJJ      -0.615100
     16 N           -2.5080     0.4350     0.9440 ns         1 FJJ      -0.563900
     17 C           -3.3630    -1.6380     1.8890 c3         1 FJJ       0.123400
     18 OC1         -3.7210    -2.1100     0.6100 os         1 FJJ      -0.436600
     19 CG1         -4.9380    -2.7680     0.5190 c6         1 FJJ       0.315900
     20 OG          -6.0300    -1.9060     0.6870 os         1 FJJ      -0.402600
     21 CG          -6.1140    -0.8670    -0.2760 c6         1 FJJ       0.148100
     22 CG5         -7.2940     0.0100     0.0840 c3         1 FJJ       0.147400
     23 OG6         -7.0420     0.6160     1.3300 oh         1 FJJ      -0.589800
     24 CG4         -6.2210    -1.4250    -1.6900 c6         1 FJJ       0.124100
     25 OG5         -7.4600    -2.0780    -1.8350 oh         1 FJJ      -0.593800
     26 CG3         -5.0530    -2.3750    -1.9450 c6         1 FJJ       0.117100
     27 OG4         -5.2330    -2.9390    -3.2230 oh         1 FJJ      -0.611800
     28 CG2         -5.0060    -3.4390    -0.8560 c6         1 FJJ       0.091100
     29 OG3         -3.8970    -4.2680    -1.1030 oh         1 FJJ      -0.591800
     30 O1          -0.5690    -2.5150     1.9930 oh         1 FJJ      -0.582800
     31 O32         -0.0880     0.1080    -0.4980 oh         1 FJJ      -0.593800
     32 C7           5.1990    -0.3030    -0.2620 c          1 FJJ       0.700500
     33 O            5.1300     0.8520    -0.6180 o          1 FJJ      -0.536100
     34 N1           6.3870    -1.0220    -0.3210 ne         1 FJJ      -0.675100
     35 C17          7.3590    -0.7500     0.4410 c2         1 FJJ       0.509200
     36 C16          8.6630    -1.4610     0.3610 c3         1 FJJ      -0.145700
     37 C15          9.8030    -0.4960     0.0280 c3         1 FJJ      -0.070400
     38 C14         11.1600    -1.2010     0.0380 c3         1 FJJ      -0.030100
     39 C13         12.2840    -0.2660    -0.3100 ca         1 FJJ      -0.082300
     40 C8          12.8280     0.5820     0.6550 ca         1 FJJ      -0.124000
     41 C9          13.8390     1.4750     0.3300 ca         1 FJJ      -0.126500
     42 C10         14.3260     1.5350    -0.9710 ca         1 FJJ      -0.128000
     43 C12         12.7780    -0.1940    -1.6100 ca         1 FJJ      -0.124000
     44 H1          -1.8480    -0.3870     2.7080 h1         1 FJJ       0.076700
     45 H2          -1.2680    -2.0040     0.1940 h1         1 FJJ       0.092700
     46 H3           0.3160     0.2370     1.4670 h1         1 FJJ       0.077700
     47 H4           1.7910    -1.7400     1.5860 hc         1 FJJ       0.049700
     48 H5           1.4660    -2.1230    -0.0910 hc         1 FJJ       0.049700
     49 H6           2.5050     0.0480    -0.7830 hc         1 FJJ       0.059200
     50 H7           2.7610     0.4680     0.8980 hc         1 FJJ       0.059200
     51 H8           4.2550    -1.5320     1.1750 hc         1 FJJ       0.067200
     52 H9           3.9620    -1.9990    -0.4720 hc         1 FJJ       0.067200
     53 H10         14.1650     0.7350    -2.9560 ha         1 FJJ       0.130500
     54 H11         -9.3950     8.3100    -1.4310 hc         1 FJJ       0.031367
     55 H12         -7.6830     8.6650    -1.6490 hc         1 FJJ       0.031367
     56 H13         -8.4670     7.4580    -2.6620 hc         1 FJJ       0.031367
     57 H14         -8.0660     7.2020     0.3690 hc         1 FJJ       0.036200
     58 H15         -8.8360     6.0040    -0.6460 hc         1 FJJ       0.036200
     59 H16         -6.7060     5.7210    -1.9290 hc         1 FJJ       0.037200
     60 H17         -5.9360     6.9210    -0.9140 hc         1 FJJ       0.037200
     61 H18         -6.3350     5.4800     1.0950 hc         1 FJJ       0.037200
     62 H19         -7.1080     4.2810     0.0820 hc         1 FJJ       0.037200
     63 H20         -4.9860     3.9910    -1.2050 hc         1 FJJ       0.035700
     64 H21         -4.2050     5.1930    -0.1990 hc         1 FJJ       0.035700
     65 H22         -4.5950     3.7730     1.8170 hc         1 FJJ       0.057700
     66 H23         -5.4010     2.5730     0.8300 hc         1 FJJ       0.057700
     67 H24         -3.2740     2.3050    -0.5160 hc         1 FJJ       0.056200
     68 H25         -2.4800     3.4290     0.5650 hc         1 FJJ       0.056200
     69 H26         -2.4070     0.3920    -0.0560 hn         1 FJJ       0.326500
     70 H27         -3.1320    -2.4710     2.5630 h1         1 FJJ       0.052700
     71 H28         -4.1720    -1.0560     2.3430 h1         1 FJJ       0.052700
     72 H29         -5.0400    -3.5190     1.3150 h2         1 FJJ       0.069700
     73 H30         -5.2080    -0.2460    -0.2420 h1         1 FJJ       0.059700
     74 H31         -7.4120     0.7550    -0.7140 h1         1 FJJ       0.036200
     75 H32         -8.2130    -0.5870     0.1080 h1         1 FJJ       0.036200
     76 H33         -7.7680     1.2170     1.5190 ho         1 FJJ       0.405000
     77 H34         -6.1400    -0.5780    -2.3880 h1         1 FJJ       0.049700
     78 H35         -7.4560    -2.5360    -2.6820 ho         1 FJJ       0.422000
     79 H36         -4.1240    -1.7880    -1.9090 h1         1 FJJ       0.062700
     80 H37         -4.6020    -3.6600    -3.3280 ho         1 FJJ       0.429000
     81 H38         -5.9400    -4.0140    -0.8880 h1         1 FJJ       0.065700
     82 H39         -4.0430    -5.1170    -0.6760 ho         1 FJJ       0.413000
     83 H40         -0.2730    -2.1210     2.8210 ho         1 FJJ       0.400000
     84 H41         -0.0120    -0.5330    -1.2150 ho         1 FJJ       0.403000
     85 H42          7.2880     0.0330     1.2030 h4         1 FJJ      -0.027200
     86 H43          8.8610    -1.9210     1.3350 hc         1 FJJ       0.063200
     87 H44          8.6040    -2.2590    -0.3800 hc         1 FJJ       0.063200
     88 H45          9.6300    -0.0500    -0.9550 hc         1 FJJ       0.051200
     89 H46          9.8160     0.3280     0.7480 hc         1 FJJ       0.051200
     90 H47         11.3290    -1.6350     1.0280 hc         1 FJJ       0.047200
     91 H48         11.1390    -2.0330    -0.6700 hc         1 FJJ       0.047200
     92 H49         12.4590     0.5390     1.6730 ha         1 FJJ       0.128000
     93 H50         14.2510     2.1230     1.0930 ha         1 FJJ       0.130500
     94 H51         15.1170     2.2280    -1.2240 ha         1 FJJ       0.131000
     95 H52         12.3680    -0.8470    -2.3720 ha         1 FJJ       0.128000
     96 C18         -2.9490     1.5800     1.4920 c          1 FJJ       0.672100
@<TRIPOS>BOND
     1     1     2 1   
     2     1    16 1   
     3     1    17 1   
     4     1    44 1   
     5     2     3 1   
     6     2    30 1   
     7     2    45 1   
     8     3     4 1   
     9     3    31 1   
    10     3    46 1   
    11     4     5 1   
    12     4    47 1   
    13     4    48 1   
    14     5     6 1   
    15     5    49 1   
    16     5    50 1   
    17     6    32 1   
    18     6    51 1   
    19     6    52 1   
    20     7    42 ar  
    21     7    43 ar  
    22     7    53 1   
    23     8     9 1   
    24     8    54 1   
    25     8    55 1   
    26     8    56 1   
    27     9    10 1   
    28     9    57 1   
    29     9    58 1   
    30    10    11 1   
    31    10    59 1   
    32    10    60 1   
    33    11    12 1   
    34    11    61 1   
    35    11    62 1   
    36    12    13 1   
    37    12    63 1   
    38    12    64 1   
    39    13    14 1   
    40    13    65 1   
    41    13    66 1   
    42    14    67 1   
    43    14    68 1   
    44    14    96 1   
    45    15    96 2   
    46    16    69 1   
    47    16    96 1   
    48    17    18 1   
    49    17    70 1   
    50    17    71 1   
    51    18    19 1   
    52    19    20 1   
    53    19    28 1   
    54    19    72 1   
    55    20    21 1   
    56    21    22 1   
    57    21    24 1   
    58    21    73 1   
    59    22    23 1   
    60    22    74 1   
    61    22    75 1   
    62    23    76 1   
    63    24    25 1   
    64    24    26 1   
    65    24    77 1   
    66    25    78 1   
    67    26    27 1   
    68    26    28 1   
    69    26    79 1   
    70    27    80 1   
    71    28    29 1   
    72    28    81 1   
    73    29    82 1   
    74    30    83 1   
    75    31    84 1   
    76    32    33 2   
    77    32    34 1   
    78    34    35 2   
    79    35    36 1   
    80    35    85 1   
    81    36    37 1   
    82    36    86 1   
    83    36    87 1   
    84    37    38 1   
    85    37    88 1   
    86    37    89 1   
    87    38    39 1   
    88    38    90 1   
    89    38    91 1   
    90    39    40 ar  
    91    39    43 ar  
    92    40    41 ar  
    93    40    92 1   
    94    41    42 ar  
    95    41    93 1   
    96    42    94 1   
    97    43    95 1   
@<TRIPOS>SUBSTRUCTURE
     1 FJJ         1 TEMP              0 ****  ****    0 ROOT
