@<TRIPOS>MOLECULE
FJJ
   96    97     1     0     0
SMALL
No Charge or Current Charge


@<TRIPOS>ATOM
      1 C1          -1.5140    -1.2210     1.3550 c3         1 FJJ       0.090700
      2 C2          -0.5610    -1.9660     0.3550 c3         1 FJJ       0.125300
      3 C3           0.7220    -1.1600    -0.0790 c3         1 FJJ       0.137300
      4 C4           1.7480    -1.9970    -0.8950 c3         1 FJJ      -0.108400
      5 C5           3.0440    -1.2330    -1.2670 c3         1 FJJ      -0.066400
      6 C6           4.0660    -2.1190    -2.0240 c3         1 FJJ      -0.160400
      7 C11         13.2580     1.0060    -0.4120 ca         1 FJJ      -0.108500
      8 C25         -7.6010     7.1720    -2.3050 c3         1 FJJ      -0.089100
      9 C24         -7.3470     5.8080    -1.6360 c3         1 FJJ      -0.074400
     10 C23         -5.8920     5.6340    -1.1480 c3         1 FJJ      -0.076400
     11 C22         -5.6390     4.2660    -0.4780 c3         1 FJJ      -0.073400
     12 C21         -4.1840     4.0910     0.0090 c3         1 FJJ      -0.076400
     13 C20         -3.9410     2.7210     0.6750 c3         1 FJJ      -0.072400
     14 C19         -2.4830     2.5150     1.1490 c3         1 FJJ      -0.151400
     15 O2          -2.6800     0.9050     2.9450 o          1 FJJ      -0.615100
     16 N           -1.7040     0.1980     1.0120 ns         1 FJJ      -0.496900
     17 C           -2.8800    -1.9550     1.4990 c3         1 FJJ       0.146600
     18 OC1         -3.6390    -1.7490     0.2880 os         1 FJJ      -0.483000
     19 CG1         -4.9400    -2.3680     0.2190 c6         1 FJJ       0.362300
     20 OG          -5.7970    -1.8620     1.2680 os         1 FJJ      -0.449000
     21 CG          -6.0840    -0.4390     1.1860 c6         1 FJJ       0.171300
     22 CG5         -6.9250    -0.0180     2.4370 c3         1 FJJ       0.170600
     23 OG6         -6.2850    -0.3230     3.6930 oh         1 FJJ      -0.712000
     24 CG4         -6.8030    -0.0870    -0.1580 c6         1 FJJ       0.147300
     25 OG5         -8.1170    -0.6740    -0.2620 oh         1 FJJ      -0.716000
     26 CG3         -5.9310    -0.5930    -1.3450 c6         1 FJJ       0.140300
     27 OG4         -6.6150    -0.3800    -2.5950 oh         1 FJJ      -0.674000
     28 CG2         -5.5770    -2.1070    -1.1870 c6         1 FJJ       0.114300
     29 OG3         -4.6940    -2.5150    -2.2610 oh         1 FJJ      -0.714000
     30 O1          -0.1840    -3.2270     0.9500 oh         1 FJJ      -0.645000
     31 O32          0.3490    -0.0210    -0.8770 oh         1 FJJ      -0.656000
     32 C7           5.3220    -1.3400    -2.4500 c          1 FJJ       0.700500
     33 O            5.3250    -0.5680    -3.3950 o          1 FJJ      -0.536100
     34 N1           6.4460    -1.6170    -1.6870 ne         1 FJJ      -0.675100
     35 C17          6.5290    -1.0740    -0.5130 c2         1 FJJ       0.509200
     36 C16          7.7200    -1.3390     0.3790 c3         1 FJJ      -0.145700
     37 C15          8.8860    -0.3510     0.1380 c3         1 FJJ      -0.070400
     38 C14         10.1010    -0.6100     1.0540 c3         1 FJJ      -0.030100
     39 C13         11.2310     0.3770     0.7960 ca         1 FJJ      -0.082300
     40 C8          11.2970     1.5870     1.5150 ca         1 FJJ      -0.106000
     41 C9          12.3380     2.5000     1.2730 ca         1 FJJ      -0.108500
     42 C10         13.3190     2.2100     0.3100 ca         1 FJJ      -0.110000
     43 C12         12.2170     0.0920    -0.1700 ca         1 FJJ      -0.106000
     44 H1          -1.0300    -1.2410     2.3400 h1         1 FJJ       0.076700
     45 H2          -1.1350    -2.1580    -0.5630 h1         1 FJJ       0.092700
     46 H3           1.2210    -0.8150     0.8390 h1         1 FJJ       0.077700
     47 H4           2.0390    -2.8800    -0.3140 hc         1 FJJ       0.049700
     48 H5           1.2690    -2.3720    -1.8090 hc         1 FJJ       0.049700
     49 H6           2.7980    -0.3640    -1.8910 hc         1 FJJ       0.059200
     50 H7           3.5020    -0.8430    -0.3490 hc         1 FJJ       0.059200
     51 H8           4.3490    -2.9530    -1.3700 hc         1 FJJ       0.067200
     52 H9           3.5830    -2.5070    -2.9280 hc         1 FJJ       0.067200
     53 H10         14.0160     0.7800    -1.1580 ha         1 FJJ       0.112500
     54 H11         -8.6440     7.2490    -2.6340 hc         1 FJJ       0.031367
     55 H12         -7.4010     7.9910    -1.6030 hc         1 FJJ       0.031367
     56 H13         -6.9540     7.3010    -3.1820 hc         1 FJJ       0.031367
     57 H14         -8.0320     5.6950    -0.7860 hc         1 FJJ       0.036200
     58 H15         -7.5890     5.0110    -2.3500 hc         1 FJJ       0.036200
     59 H16         -5.2110     5.7500    -2.0000 hc         1 FJJ       0.037200
     60 H17         -5.6540     6.4340    -0.4360 hc         1 FJJ       0.037200
     61 H18         -6.3210     4.1510     0.3740 hc         1 FJJ       0.037200
     62 H19         -5.8790     3.4670    -1.1910 hc         1 FJJ       0.037200
     63 H20         -3.5020     4.2050    -0.8430 hc         1 FJJ       0.035700
     64 H21         -3.9420     4.8880     0.7230 hc         1 FJJ       0.035700
     65 H22         -4.6190     2.6120     1.5310 hc         1 FJJ       0.057700
     66 H23         -4.1960     1.9290    -0.0400 hc         1 FJJ       0.057700
     67 H24         -1.8240     2.5990     0.2760 hc         1 FJJ       0.056200
     68 H25         -2.2400     3.2920     1.8840 hc         1 FJJ       0.056200
     69 H26         -1.3510     0.5100     0.1130 hn         1 FJJ       0.326500
     70 H27         -2.7160    -3.0250     1.6820 h1         1 FJJ       0.052700
     71 H28         -3.4190    -1.5500     2.3650 h1         1 FJJ       0.052700
     72 H29         -4.8230    -3.4550     0.3510 h2         1 FJJ       0.069700
     73 H30         -5.1340     0.1110     1.2330 h1         1 FJJ       0.059700
     74 H31         -7.1170     1.0620     2.3670 h1         1 FJJ       0.036200
     75 H32         -7.8990    -0.5240     2.3850 h1         1 FJJ       0.036200
     76 H33         -6.9250    -0.0940     4.4060 ho         1 FJJ       0.504000
     77 H34         -6.8790     1.0090    -0.2310 h1         1 FJJ       0.049700
     78 H35         -8.2980    -0.6840    -1.2340 ho         1 FJJ       0.521000
     79 H36         -4.9910    -0.0210    -1.3360 h1         1 FJJ       0.062700
     80 H37         -6.1360    -0.9420    -3.2480 ho         1 FJJ       0.468000
     81 H38         -6.5100    -2.6880    -1.2360 h1         1 FJJ       0.065700
     82 H39         -3.7800    -2.3150    -1.9460 ho         1 FJJ       0.512000
     83 H40          0.4430    -3.0390     1.6830 ho         1 FJJ       0.439000
     84 H41          0.4370    -0.2860    -1.8190 ho         1 FJJ       0.442000
     85 H42          5.7580    -0.3960    -0.1560 h4         1 FJJ      -0.027200
     86 H43          7.4020    -1.2730     1.4260 hc         1 FJJ       0.063200
     87 H44          8.0760    -2.3650     0.2270 hc         1 FJJ       0.063200
     88 H45          9.2070    -0.4180    -0.9090 hc         1 FJJ       0.051200
     89 H46          8.5300     0.6750     0.2970 hc         1 FJJ       0.051200
     90 H47          9.7820    -0.5510     2.1020 hc         1 FJJ       0.047200
     91 H48         10.4560    -1.6370     0.9000 hc         1 FJJ       0.047200
     92 H49         10.5400     1.8210     2.2600 ha         1 FJJ       0.110000
     93 H50         12.3830     3.4330     1.8310 ha         1 FJJ       0.112500
     94 H51         14.1250     2.9170     0.1230 ha         1 FJJ       0.113000
     95 H52         12.1750    -0.8370    -0.7340 ha         1 FJJ       0.110000
     96 C18         -2.3160     1.1400     1.8020 c          1 FJJ       0.605100
@<TRIPOS>BOND
     1     1     2 1   
     2     1    16 1   
     3     1    17 1   
     4     1    44 1   
     5     2     3 1   
     6     2    30 1   
     7     2    45 1   
     8     3     4 1   
     9     3    31 1   
    10     3    46 1   
    11     4     5 1   
    12     4    47 1   
    13     4    48 1   
    14     5     6 1   
    15     5    49 1   
    16     5    50 1   
    17     6    32 1   
    18     6    51 1   
    19     6    52 1   
    20     7    42 ar  
    21     7    43 ar  
    22     7    53 1   
    23     8     9 1   
    24     8    54 1   
    25     8    55 1   
    26     8    56 1   
    27     9    10 1   
    28     9    57 1   
    29     9    58 1   
    30    10    11 1   
    31    10    59 1   
    32    10    60 1   
    33    11    12 1   
    34    11    61 1   
    35    11    62 1   
    36    12    13 1   
    37    12    63 1   
    38    12    64 1   
    39    13    14 1   
    40    13    65 1   
    41    13    66 1   
    42    14    67 1   
    43    14    68 1   
    44    14    96 1   
    45    15    96 2   
    46    16    69 1   
    47    16    96 1   
    48    17    18 1   
    49    17    70 1   
    50    17    71 1   
    51    18    19 1   
    52    19    20 1   
    53    19    28 1   
    54    19    72 1   
    55    20    21 1   
    56    21    22 1   
    57    21    24 1   
    58    21    73 1   
    59    22    23 1   
    60    22    74 1   
    61    22    75 1   
    62    23    76 1   
    63    24    25 1   
    64    24    26 1   
    65    24    77 1   
    66    25    78 1   
    67    26    27 1   
    68    26    28 1   
    69    26    79 1   
    70    27    80 1   
    71    28    29 1   
    72    28    81 1   
    73    29    82 1   
    74    30    83 1   
    75    31    84 1   
    76    32    33 2   
    77    32    34 1   
    78    34    35 2   
    79    35    36 1   
    80    35    85 1   
    81    36    37 1   
    82    36    86 1   
    83    36    87 1   
    84    37    38 1   
    85    37    88 1   
    86    37    89 1   
    87    38    39 1   
    88    38    90 1   
    89    38    91 1   
    90    39    40 ar  
    91    39    43 ar  
    92    40    41 ar  
    93    40    92 1   
    94    41    42 ar  
    95    41    93 1   
    96    42    94 1   
    97    43    95 1   
@<TRIPOS>SUBSTRUCTURE
     1 FJJ         1 TEMP              0 ****  ****    0 ROOT
