@<TRIPOS>MOLECULE
FJK
   90    97     1     0     0
SMALL
No Charge or Current Charge


@<TRIPOS>ATOM
      1 CAC          7.3020     4.7340    -0.2530 ca         1 FJK      -0.081000
      2 CAD          1.0300     1.4790    -1.2260 c6         1 FJK      -0.079400
      3 CAE          7.9870     3.5110    -0.3070 ca         1 FJK      -0.148000
      4 CAF          1.5560     0.0770    -0.8230 c6         1 FJK      -0.076400
      5 CAG         -7.8930     1.6150     0.2400 ca         1 FJK      -0.101000
      6 CAH         -2.5430    -4.5440    -2.4210 ca         1 FJK       0.372900
      7 CAI         -6.8730     0.6500     0.0760 ca         1 FJK      -0.096000
      8 CAJ         -7.5710     2.9430     0.5700 ca         1 FJK      -0.058000
      9 CAK         -1.6890    -5.3770    -1.6790 ca         1 FJK      -0.184000
     10 CAL          5.9180     4.7470    -0.0260 ca         1 FJK      -0.118000
     11 CAM          1.6540     2.5960    -0.3500 c6         1 FJK      -0.064400
     12 CAN          7.2940     2.3020    -0.1270 ca         1 FJK      -0.068000
     13 CAO          3.1080     0.0270    -0.8000 c6         1 FJK      -0.069400
     14 CAP         -1.8070    -3.7750     0.1080 ca         1 FJK      -0.196000
     15 CAQ          3.4790    -3.9190     0.6780 cc         1 FJK      -0.182000
     16 CAR         -1.7660     3.9960    -0.3080 c6         1 FJK      -0.076400
     17 CAS         -2.3000     5.4200     0.0070 c6         1 FJK      -0.100400
     18 CAT          5.2280    -1.1510     1.5820 c3         1 FJK       0.203800
     19 CAU         -2.9290     2.9820    -0.4760 c6         1 FJK      -0.088400
     20 CAV         -3.2240     5.4250     1.2510 c6         1 FJK       0.109000
     21 CAW          5.5260    -2.4120     0.7470 c3         1 FJK       0.054600
     22 CAX         -0.3610    -5.8490     0.4550 c3         1 FJK       0.204900
     23 CBH         -4.3980    -1.2200    -0.4090 c          1 FJK       0.668100
     24 CBI         -5.6170     4.5750     1.0650 c          1 FJK       0.581600
     25 CBJ         -1.3020    -4.9920    -0.3830 ca         1 FJK      -0.021300
     26 CBK          3.1550    -5.0220     1.4160 cd         1 FJK       0.197300
     27 CBL         -2.6780    -3.0230    -0.6920 ca         1 FJK       0.492900
     28 CBM         -5.5080     1.0000     0.2300 ca         1 FJK       0.000000
     29 CBN         -6.2180     3.2700     0.7280 ca         1 FJK      -0.136600
     30 CBO          5.2190     1.0980     0.3160 c2         1 FJK       0.226800
     31 CBP         -5.2040     2.3360     0.5590 ca         1 FJK      -0.128300
     32 CBQ          5.2170     3.5420     0.1560 ca         1 FJK       0.088000
     33 CBR          3.1980     2.5030    -0.3830 c6         1 FJK       0.131500
     34 CBS          5.9000     2.2970     0.1150 ca         1 FJK      -0.258000
     35 CBT          3.6830     1.1270     0.1420 c6         1 FJK      -0.064500
     36 CBU         -3.8280     2.9670     0.7860 c5         1 FJK       0.156000
     37 NAZ         -3.0280    -3.3760    -1.9450 nb         1 FJK      -0.667000
     38 NBA          4.1830    -5.2960     2.2970 nd         1 FJK      -0.350000
     39 NBB          5.1290    -4.4070     2.1440 nc         1 FJK      -0.204800
     40 NBC          3.8770     3.5800     0.3320 n2         1 FJK      -0.335200
     41 NBD          5.8590     0.0450     0.9810 nu         1 FJK      -0.813200
     42 NBE         -3.1500    -1.7770    -0.2670 ns         1 FJK      -0.341900
     43 NBF         -4.4440     0.0670     0.1020 ns         1 FJK      -0.182000
     44 NBV         -4.2370     4.3590     1.1250 n          1 FJK      -0.411800
     45 NBW          4.7110    -3.5620     1.1610 na         1 FJK       0.117800
     46 OAA         -5.3500    -1.8000    -0.9140 o          1 FJK      -0.554100
     47 OBG          0.8950    -5.1630     0.5720 os         1 FJK      -0.464000
     48 H1           7.8410     5.6690    -0.3950 ha         1 FJK       0.110000
     49 H2           1.2660     1.6680    -2.2830 hc         1 FJK       0.042700
     50 H3          -0.0640     1.5040    -1.1440 hc         1 FJK       0.042700
     51 H4           9.0590     3.4980    -0.4930 ha         1 FJK       0.112000
     52 H5           1.1660    -0.1900     0.1690 hc         1 FJK       0.040700
     53 H6           1.1690    -0.6800    -1.5200 hc         1 FJK       0.040700
     54 H7          -8.9350     1.3270     0.1180 ha         1 FJK       0.122000
     55 H8          -2.8450    -4.8190    -3.4310 h4         1 FJK       0.028100
     56 H9          -7.1680    -0.3680    -0.1580 ha         1 FJK       0.138000
     57 H10         -8.3480     3.6940     0.7020 ha         1 FJK       0.138000
     58 H11         -1.3280    -6.3040    -2.1170 ha         1 FJK       0.128000
     59 H12          5.3850     5.6940     0.0020 ha         1 FJK       0.126000
     60 H13          1.3320     3.5790    -0.7200 hc         1 FJK       0.052700
     61 H14          1.2920     2.5120     0.6840 hc         1 FJK       0.052700
     62 H15          7.8520     1.3700    -0.1890 ha         1 FJK       0.090000
     63 H16          3.4190    -0.9720    -0.4830 hc         1 FJK       0.039700
     64 H17          3.5020     0.1620    -1.8170 hc         1 FJK       0.039700
     65 H18         -1.5300    -3.4190     1.0960 ha         1 FJK       0.125000
     66 H19          2.9490    -3.3910    -0.1020 h4         1 FJK       0.179000
     67 H20         -1.1590     4.0210    -1.2230 hc         1 FJK       0.044700
     68 H21         -1.1010     3.6640     0.5020 hc         1 FJK       0.044700
     69 H22         -1.4620     6.1130     0.1630 hc         1 FJK       0.053700
     70 H23         -2.8600     5.7990    -0.8600 hc         1 FJK       0.053700
     71 H24          4.1420    -1.0220     1.6830 h1         1 FJK       0.072700
     72 H25          5.6190    -1.3090     2.5960 h1         1 FJK       0.072700
     73 H26         -3.5300     3.2590    -1.3530 hc         1 FJK       0.054700
     74 H27         -2.5300     1.9780    -0.6710 hc         1 FJK       0.054700
     75 H28         -2.6270     5.2410     2.1550 h1         1 FJK       0.058700
     76 H29         -3.7050     6.4070     1.3590 h1         1 FJK       0.058700
     77 H30          5.3230    -2.2110    -0.3110 h1         1 FJK       0.078200
     78 H31          6.5870    -2.6710     0.8400 h1         1 FJK       0.078200
     79 H32         -0.8070    -6.0140     1.4450 h1         1 FJK       0.038200
     80 H33         -0.2250    -6.8280    -0.0240 h1         1 FJK       0.038200
     81 H36         -3.2980     2.4960     1.6250 h1         1 FJK       0.058700
     82 H37          6.8270     0.2290     1.2520 hn         1 FJK       0.496000
     83 H38         -2.4700    -1.2190     0.2310 hn         1 FJK       0.148000
     84 H39         -3.5600     0.4030     0.4590 hn         1 FJK       0.149000
     85 H40          3.5050     2.5910    -1.4360 h1         1 FJK       0.051700
     86 H41          3.2500     0.9890     1.1420 hc         1 FJK       0.072700
     87 CAY          1.8960    -5.8590     1.3430 c3         1 FJK       0.144300
     88 OAB         -6.1990     5.6370     1.2430 o          1 FJK      -0.542000
     89 H34          2.1390    -6.8250     0.8800 h1         1 FJK       0.045700
     90 H35          1.5360    -6.0480     2.3630 h1         1 FJK       0.045700
@<TRIPOS>BOND
     1     1     3 ar  
     2     1    10 ar  
     3     1    48 1   
     4     2     4 1   
     5     2    11 1   
     6     2    49 1   
     7     2    50 1   
     8     3    12 ar  
     9     3    51 1   
    10     4    13 1   
    11     4    52 1   
    12     4    53 1   
    13     5     7 ar  
    14     5     8 ar  
    15     5    54 1   
    16     6     9 ar  
    17     6    37 ar  
    18     6    55 1   
    19     7    28 ar  
    20     7    56 1   
    21     8    29 ar  
    22     8    57 1   
    23     9    25 ar  
    24     9    58 1   
    25    10    32 ar  
    26    10    59 1   
    27    11    33 1   
    28    11    60 1   
    29    11    61 1   
    30    12    34 ar  
    31    12    62 1   
    32    13    35 1   
    33    13    63 1   
    34    13    64 1   
    35    14    25 ar  
    36    14    27 ar  
    37    14    65 1   
    38    15    26 2   
    39    15    45 1   
    40    15    66 1   
    41    16    17 1   
    42    16    19 1   
    43    16    67 1   
    44    16    68 1   
    45    17    20 1   
    46    17    69 1   
    47    17    70 1   
    48    18    21 1   
    49    18    41 1   
    50    18    71 1   
    51    18    72 1   
    52    19    36 1   
    53    19    73 1   
    54    19    74 1   
    55    20    44 1   
    56    20    75 1   
    57    20    76 1   
    58    21    45 1   
    59    21    77 1   
    60    21    78 1   
    61    22    25 1   
    62    22    47 1   
    63    22    79 1   
    64    22    80 1   
    65    23    42 1   
    66    23    43 1   
    67    23    46 2   
    68    24    29 1   
    69    24    44 1   
    70    24    88 2   
    71    26    38 1   
    72    26    87 1   
    73    27    37 ar  
    74    27    42 1   
    75    28    31 ar  
    76    28    43 1   
    77    29    31 ar  
    78    30    34 2   
    79    30    35 1   
    80    30    41 1   
    81    31    36 1   
    82    32    34 ar  
    83    32    40 2   
    84    33    35 1   
    85    33    40 1   
    86    33    85 1   
    87    35    86 1   
    88    36    44 1   
    89    36    81 1   
    90    38    39 2   
    91    39    45 1   
    92    41    82 1   
    93    42    83 1   
    94    43    84 1   
    95    47    87 1   
    96    87    89 1   
    97    87    90 1   
@<TRIPOS>SUBSTRUCTURE
     1 FJK         1 TEMP              0 ****  ****    0 ROOT
