@<TRIPOS>MOLECULE
FJK
   90    97     1     0     0
SMALL
abcg2


@<TRIPOS>ATOM
      1 CAC          7.2770     4.6440    -0.0340 ca         1 FJK      -0.081000
      2 CAD          0.8590     1.3880    -0.7000 c6         1 FJK      -0.079400
      3 CAE          7.9620     3.4090    -0.2700 ca         1 FJK      -0.148000
      4 CAF          1.3900     0.0740    -0.1480 c6         1 FJK      -0.076400
      5 CAG         -7.7050     1.4780     0.0830 ca         1 FJK      -0.101000
      6 CAH         -2.4650    -4.4170    -2.3410 ca         1 FJK       0.372900
      7 CAI         -6.6610     0.5590     0.1020 ca         1 FJK      -0.096000
      8 CAJ         -7.4790     2.8320     0.2870 ca         1 FJK      -0.058000
      9 CAK         -1.6300    -5.2840    -1.6600 ca         1 FJK      -0.184000
     10 CAL          5.9340     4.6840     0.1130 ca         1 FJK      -0.118000
     11 CAM          1.6340     2.5670    -0.1310 c6         1 FJK      -0.064400
     12 CAN          7.2590     2.2500    -0.2680 ca         1 FJK      -0.068000
     13 CAO          2.9000    -0.0520    -0.3240 c6         1 FJK      -0.069400
     14 CAP         -1.7060    -3.7540     0.1630 ca         1 FJK      -0.196000
     15 CAQ          3.4020    -3.9120     0.4140 cc         1 FJK      -0.182000
     16 CAR         -1.7740     4.0800    -0.3360 c6         1 FJK      -0.076400
     17 CAS         -2.3690     5.4720    -0.1560 c6         1 FJK      -0.100400
     18 CAT          5.3360    -1.2280     1.2880 c3         1 FJK       0.203800
     19 CAU         -2.8690     3.0290    -0.4940 c6         1 FJK      -0.088400
     20 CAV         -3.3360     5.4980     1.0220 c6         1 FJK       0.109000
     21 CAW          5.3890    -2.3900     0.2900 c3         1 FJK       0.054600
     22 CAX         -0.2970    -5.8040     0.4220 c3         1 FJK       0.204900
     23 CBH         -4.1120    -1.0390    -0.4020 c          1 FJK       0.668100
     24 CBI         -5.6350     4.5850     0.7420 c          1 FJK       0.581600
     25 CBJ         -1.2330    -4.9390    -0.3720 ca         1 FJK      -0.021300
     26 CBK          3.1160    -4.9470     1.2630 cd         1 FJK       0.197300
     27 CBL         -2.5490    -2.9530    -0.6100 ca         1 FJK       0.492900
     28 CBM         -5.3420     0.9720     0.3020 ca         1 FJK       0.000000
     29 CBN         -6.1700     3.2260     0.4970 ca         1 FJK      -0.136600
     30 CBO          5.1450     1.0700     0.2830 c2         1 FJK       0.226800
     31 CBP         -5.1160     2.3290     0.4880 ca         1 FJK      -0.128300
     32 CBQ          5.1160     3.4930     0.0010 ca         1 FJK       0.088000
     33 CBR          3.1340     2.4020    -0.3410 c6         1 FJK       0.131500
     34 CBS          5.8390     2.2290    -0.0840 ca         1 FJK      -0.258000
     35 CBT          3.6390     1.1200     0.3490 c6         1 FJK      -0.064500
     36 CBU         -3.8310     3.0740     0.6950 c5         1 FJK       0.156000
     37 NAZ         -2.9110    -3.2690    -1.8410 nb         1 FJK      -0.667000
     38 NBA          4.1730    -5.1190     2.0820 nd         1 FJK      -0.350000
     39 NBB          5.0840    -4.2540     1.7850 nc         1 FJK      -0.204800
     40 NBC          3.8280     3.6100     0.0070 n2         1 FJK      -0.335200
     41 NBD          5.8220    -0.0050     0.6950 nu         1 FJK      -0.813200
     42 NBE         -2.9920    -1.7580    -0.0510 ns         1 FJK      -0.341900
     43 NBF         -4.2660     0.0800     0.3780 ns         1 FJK      -0.182000
     44 NBV         -4.3010     4.4320     0.8980 n          1 FJK      -0.411800
     45 NBW          4.6380    -3.5240     0.7800 na         1 FJK       0.117800
     46 OAA         -4.8810    -1.3420    -1.2880 o          1 FJK      -0.554100
     47 OBG          0.9030    -5.0860     0.5790 os         1 FJK      -0.464000
     48 H1           7.8510     5.5620     0.0120 ha         1 FJK       0.110000
     49 H2           0.9510     1.3880    -1.7910 hc         1 FJK       0.042700
     50 H3          -0.2060     1.4860    -0.4800 hc         1 FJK       0.042700
     51 H4           9.0290     3.4090    -0.4420 ha         1 FJK       0.112000
     52 H5           1.1510    -0.0020     0.9180 hc         1 FJK       0.040700
     53 H6           0.9000    -0.7730    -0.6350 hc         1 FJK       0.040700
     54 H7          -8.7130     1.1170    -0.0790 ha         1 FJK       0.122000
     55 H8          -2.7850    -4.6510    -3.3490 h4         1 FJK       0.028100
     56 H9          -6.8870    -0.4890    -0.0260 ha         1 FJK       0.138000
     57 H10         -8.2910     3.5470     0.2870 ha         1 FJK       0.138000
     58 H11         -1.2920    -6.1990    -2.1280 ha         1 FJK       0.128000
     59 H12          5.4170     5.6230     0.2680 ha         1 FJK       0.126000
     60 H13          1.3130     3.4980    -0.6050 hc         1 FJK       0.052700
     61 H14          1.4290     2.6740     0.9400 hc         1 FJK       0.052700
     62 H15          7.7920     1.3230    -0.4520 ha         1 FJK       0.090000
     63 H16          3.1960    -1.0150     0.0790 hc         1 FJK       0.039700
     64 H17          3.1580    -0.0680    -1.3880 hc         1 FJK       0.039700
     65 H18         -1.4380    -3.4570     1.1700 ha         1 FJK       0.125000
     66 H19          2.8560    -3.4540    -0.3920 h4         1 FJK       0.179000
     67 H20         -1.1150     4.0560    -1.2060 hc         1 FJK       0.044700
     68 H21         -1.1500     3.8370     0.5310 hc         1 FJK       0.044700
     69 H22         -1.5800     6.2080     0.0130 hc         1 FJK       0.053700
     70 H23         -2.8980     5.7710    -1.0650 hc         1 FJK       0.053700
     71 H24          4.3320    -1.0900     1.6810 h1         1 FJK       0.072700
     72 H25          5.9710    -1.4570     2.1430 h1         1 FJK       0.072700
     73 H26         -3.4340     3.2120    -1.4120 hc         1 FJK       0.054700
     74 H27         -2.4330     2.0310    -0.5810 hc         1 FJK       0.054700
     75 H28         -2.7840     5.3730     1.9600 h1         1 FJK       0.058700
     76 H29         -3.8690     6.4460     1.0820 h1         1 FJK       0.058700
     77 H30          4.9600    -2.0980    -0.6660 h1         1 FJK       0.078200
     78 H31          6.4180    -2.6980     0.1100 h1         1 FJK       0.078200
     79 H32         -0.7410    -6.0430     1.3970 h1         1 FJK       0.038200
     80 H33         -0.1240    -6.7550    -0.0970 h1         1 FJK       0.038200
     81 H36         -3.3090     2.7300     1.5980 h1         1 FJK       0.058700
     82 H37          6.8240     0.0910     0.7390 hn         1 FJK       0.496000
     83 H38         -2.5530    -1.5210     0.8260 hn         1 FJK       0.148000
     84 H39         -3.5210     0.3360     1.0080 hn         1 FJK       0.149000
     85 H40          3.2980     2.2180    -1.4220 h1         1 FJK       0.051700
     86 H41          3.3690     1.1350     1.4180 hc         1 FJK       0.072700
     87 CAY          1.8810    -5.7760     1.3130 c3         1 FJK       0.144300
     88 OAB         -6.2650     5.6290     0.7970 o          1 FJK      -0.542000
     89 H34          2.0700    -6.7700     0.8830 h1         1 FJK       0.045700
     90 H35          1.5700    -5.9370     2.3540 h1         1 FJK       0.045700
@<TRIPOS>BOND
     1     1     3 ar  
     2     1    10 ar  
     3     1    48 1   
     4     2     4 1   
     5     2    11 1   
     6     2    49 1   
     7     2    50 1   
     8     3    12 ar  
     9     3    51 1   
    10     4    13 1   
    11     4    52 1   
    12     4    53 1   
    13     5     7 ar  
    14     5     8 ar  
    15     5    54 1   
    16     6     9 ar  
    17     6    37 ar  
    18     6    55 1   
    19     7    28 ar  
    20     7    56 1   
    21     8    29 ar  
    22     8    57 1   
    23     9    25 ar  
    24     9    58 1   
    25    10    32 ar  
    26    10    59 1   
    27    11    33 1   
    28    11    60 1   
    29    11    61 1   
    30    12    34 ar  
    31    12    62 1   
    32    13    35 1   
    33    13    63 1   
    34    13    64 1   
    35    14    25 ar  
    36    14    27 ar  
    37    14    65 1   
    38    15    26 2   
    39    15    45 1   
    40    15    66 1   
    41    16    17 1   
    42    16    19 1   
    43    16    67 1   
    44    16    68 1   
    45    17    20 1   
    46    17    69 1   
    47    17    70 1   
    48    18    21 1   
    49    18    41 1   
    50    18    71 1   
    51    18    72 1   
    52    19    36 1   
    53    19    73 1   
    54    19    74 1   
    55    20    44 1   
    56    20    75 1   
    57    20    76 1   
    58    21    45 1   
    59    21    77 1   
    60    21    78 1   
    61    22    25 1   
    62    22    47 1   
    63    22    79 1   
    64    22    80 1   
    65    23    42 1   
    66    23    43 1   
    67    23    46 2   
    68    24    29 1   
    69    24    44 1   
    70    24    88 2   
    71    26    38 1   
    72    26    87 1   
    73    27    37 ar  
    74    27    42 1   
    75    28    31 ar  
    76    28    43 1   
    77    29    31 ar  
    78    30    34 2   
    79    30    35 1   
    80    30    41 1   
    81    31    36 1   
    82    32    34 ar  
    83    32    40 2   
    84    33    35 1   
    85    33    40 1   
    86    33    85 1   
    87    35    86 1   
    88    36    44 1   
    89    36    81 1   
    90    38    39 2   
    91    39    45 1   
    92    41    82 1   
    93    42    83 1   
    94    43    84 1   
    95    47    87 1   
    96    87    89 1   
    97    87    90 1   
@<TRIPOS>SUBSTRUCTURE
     1 FJK         1 TEMP              0 ****  ****    0 ROOT
