@<TRIPOS>MOLECULE
FJL
   98   103     1     0     0
SMALL
No Charge or Current Charge


@<TRIPOS>ATOM
      1 C11         27.7000    -2.1080    19.2310 c6         1 FJL      -0.012000
      2 C12         25.7040    -0.6430    18.1510 c6         1 FJL      -0.007000
      3 C13         26.8620    -0.7510    19.2590 c6         1 FJL      -0.153700
      4 C14         29.0670    -1.8350    19.9300 c6         1 FJL      -0.008800
      5 C15         26.2970    -1.0870    16.7440 c6         1 FJL      -0.047700
      6 C16         28.0410    -2.5770    17.7900 c6         1 FJL      -0.071400
      7 C17         25.3810    -0.7990    15.4720 c6         1 FJL      -0.042000
      8 C18         26.8590    -2.5410    16.8140 c6         1 FJL      -0.070400
      9 C19         28.6310    -0.8810    21.7510 c2         1 FJL      -0.012400
     10 C20         29.6800    -1.0180    22.8510 c6         1 FJL      -0.026500
     11 C21         30.2730    -2.4820    23.0420 c6         1 FJL      -0.032000
     12 C22         30.1810    -3.5510    20.5840 c6         1 FJL      -0.061400
     13 C23         25.3040     0.8690    18.0060 c6         1 FJL      -0.076400
     14 C24         31.0470    -3.0970    21.7910 c6         1 FJL      -0.064400
     15 C25         24.9920     0.7250    15.4650 c6         1 FJL       0.193300
     16 C26         26.4490    -0.2790    20.7260 c          1 FJL       0.581300
     17 C27         26.9340    -3.2440    19.9780 c3         1 FJL      -0.087100
     18 C28         24.3700     1.1760    16.8090 c6         1 FJL      -0.094400
     19 C29         24.4360    -1.4920    18.5700 c3         1 FJL      -0.076100
     20 C30         30.3750    -0.4950    18.8580 c3         1 FJL      -0.086100
     21 C31         27.4590    -0.2420    21.8280 ce         1 FJL      -0.339200
     22 C32         30.8040     0.0430    22.6610 c6         1 FJL      -0.032400
     23 C33         31.2810    -2.4020    24.2390 c6         1 FJL      -0.059400
     24 C34         31.7970     0.1120    23.8710 c6         1 FJL      -0.183000
     25 C35         24.1110    -1.7150    15.3780 c3         1 FJL      -0.078600
     26 C36         26.1900    -1.0780    14.1540 c3         1 FJL      -0.078600
     27 C37         32.3860    -1.3270    24.0440 c6         1 FJL      -0.039400
     28 C38         29.1250    -3.4510    23.4730 c3         1 FJL      -0.084100
     29 C39         32.9450     1.1220    23.5580 c3         1 FJL      -0.058100
     30 C40         31.0760     0.5880    25.1810 c          1 FJL       0.722000
     31 C41         23.9690     2.4070    13.9910 c6         1 FJL       0.356300
     32 C42         23.6740     2.5390    12.4600 c6         1 FJL       0.148300
     33 C43         23.5110     4.0570    12.1180 c6         1 FJL       0.167300
     34 C44         22.7440     4.4360    14.5380 c6         1 FJL      -0.006700
     35 C45         22.4300     4.7120    13.0380 c6         1 FJL       0.126300
     36 C46         21.6590     5.0930    15.4630 c          1 FJL       0.732000
     37 O01         24.1110     1.0170    14.3510 os         1 FJL      -0.470000
     38 O02         25.3190     0.0960    21.0070 o          1 FJL      -0.547100
     39 O03         31.6640     0.4080    26.2390 o          1 FJL      -0.732500
     40 O04         22.8890     2.9960    14.7390 os         1 FJL      -0.436000
     41 O05         30.2530     1.4870    25.0750 o          1 FJL      -0.732500
     42 O06         24.7120     1.9020    11.6700 oh         1 FJL      -0.719000
     43 O07         23.1360     4.2740    10.7450 oh         1 FJL      -0.665000
     44 O08         22.3200     6.1240    12.7510 oh         1 FJL      -0.796000
     45 O09         20.8110     4.3470    15.9400 o          1 FJL      -0.700000
     46 O10         22.0460     6.0570    16.1150 o          1 FJL      -0.700000
     47 H1          27.6440    -0.0300    19.0020 hc         1 FJL       0.069700
     48 H2          27.1830    -0.4540    16.5920 hc         1 FJL       0.040700
     49 H3          28.4700    -3.5880    17.8160 hc         1 FJL       0.034700
     50 H4          28.8230    -1.9440    17.3640 hc         1 FJL       0.034700
     51 H5          26.1000    -3.2770    17.0980 hc         1 FJL       0.034200
     52 H6          27.2400    -2.8710    15.8420 hc         1 FJL       0.034200
     53 H7          29.1610    -0.7620    23.7850 hc         1 FJL       0.093700
     54 H8          29.5210    -4.3730    20.8820 hc         1 FJL       0.029200
     55 H9          30.8120    -3.9260    19.7670 hc         1 FJL       0.029200
     56 H10         26.2120     1.4780    17.8950 hc         1 FJL       0.054700
     57 H11         24.8100     1.2410    18.9110 hc         1 FJL       0.054700
     58 H12         31.6250    -3.9710    22.1210 hc         1 FJL       0.033200
     59 H13         31.7930    -2.3860    21.4170 hc         1 FJL       0.033200
     60 H14         25.9200     1.2990    15.3200 h1         1 FJL       0.043700
     61 H15         26.7450    -2.9920    21.0260 hc         1 FJL       0.033367
     62 H16         25.9710    -3.4740    19.5150 hc         1 FJL       0.033367
     63 H17         27.5000    -4.1800    19.9610 hc         1 FJL       0.033367
     64 H18         24.2020     2.2600    16.7930 hc         1 FJL       0.066200
     65 H19         23.3800     0.7250    16.9440 hc         1 FJL       0.066200
     66 H20         24.4090    -1.7270    19.6370 hc         1 FJL       0.032033
     67 H21         23.4940    -0.9740    18.3640 hc         1 FJL       0.032033
     68 H22         24.3720    -2.4580    18.0630 hc         1 FJL       0.032033
     69 H23         31.2540    -0.2430    19.4610 hc         1 FJL       0.037700
     70 H24         30.7450    -0.9480    17.9320 hc         1 FJL       0.037700
     71 H25         29.8700     0.4420    18.6010 hc         1 FJL       0.037700
     72 H26         27.1410     0.2400    22.7500 ha         1 FJL       0.214000
     73 H27         31.3610    -0.1750    21.7430 hc         1 FJL       0.030700
     74 H28         30.3500     1.0290    22.4920 hc         1 FJL       0.030700
     75 H29         30.7390    -2.1870    25.1700 hc         1 FJL       0.036200
     76 H30         31.7550    -3.3810    24.4000 hc         1 FJL       0.036200
     77 H31         23.3490    -1.4660    16.1210 hc         1 FJL       0.029533
     78 H32         23.6210    -1.6180    14.4010 hc         1 FJL       0.029533
     79 H33         24.3630    -2.7750    15.4980 hc         1 FJL       0.029533
     80 H34         27.1620    -0.5710    14.1640 hc         1 FJL       0.029533
     81 H35         26.3730    -2.1460    13.9920 hc         1 FJL       0.029533
     82 H36         25.6550    -0.7310    13.2630 hc         1 FJL       0.029533
     83 H37         33.0720    -1.3570    24.9010 hc         1 FJL       0.020700
     84 H38         33.0080    -1.5850    23.1760 hc         1 FJL       0.020700
     85 H39         28.6510    -3.1230    24.4070 hc         1 FJL       0.025367
     86 H40         28.3320    -3.5100    22.7210 hc         1 FJL       0.025367
     87 H41         29.5010    -4.4680    23.6370 hc         1 FJL       0.025367
     88 H42         33.6770     1.1630    24.3730 hc         1 FJL       0.015033
     89 H43         33.4860     0.8440    22.6450 hc         1 FJL       0.015033
     90 H44         32.5550     2.1370    23.4130 hc         1 FJL       0.015033
     91 H45         24.9060     2.9380    14.2190 h2         1 FJL       0.014700
     92 H46         22.7110     2.0430    12.2690 h1         1 FJL       0.057700
     93 H47         24.4740     4.5530    12.3180 h1         1 FJL       0.033700
     94 H48         23.7070     4.9050    14.7910 h1         1 FJL       0.026700
     95 H49         21.4670     4.2270    12.8160 h1         1 FJL       0.042700
     96 H51         24.8530     1.0210    12.0880 ho         1 FJL       0.503000
     97 H52         22.6820     5.1470    10.7550 ho         1 FJL       0.450000
     98 H53         23.0660     6.5860    13.2110 ho         1 FJL       0.579000
@<TRIPOS>BOND
     1     1     3 1   
     2     1     4 1   
     3     1     6 1   
     4     1    17 1   
     5     2     3 1   
     6     2     5 1   
     7     2    13 1   
     8     2    19 1   
     9     3    16 1   
    10     3    47 1   
    11     4     9 1   
    12     4    12 1   
    13     4    20 1   
    14     5     7 1   
    15     5     8 1   
    16     5    48 1   
    17     6     8 1   
    18     6    49 1   
    19     6    50 1   
    20     7    15 1   
    21     7    25 1   
    22     7    26 1   
    23     8    51 1   
    24     8    52 1   
    25     9    10 1   
    26     9    21 2   
    27    10    11 1   
    28    10    22 1   
    29    10    53 1   
    30    11    14 1   
    31    11    23 1   
    32    11    28 1   
    33    12    14 1   
    34    12    54 1   
    35    12    55 1   
    36    13    18 1   
    37    13    56 1   
    38    13    57 1   
    39    14    58 1   
    40    14    59 1   
    41    15    18 1   
    42    15    37 1   
    43    15    60 1   
    44    16    21 1   
    45    16    38 2   
    46    17    61 1   
    47    17    62 1   
    48    17    63 1   
    49    18    64 1   
    50    18    65 1   
    51    19    66 1   
    52    19    67 1   
    53    19    68 1   
    54    20    69 1   
    55    20    70 1   
    56    20    71 1   
    57    21    72 1   
    58    22    24 1   
    59    22    73 1   
    60    22    74 1   
    61    23    27 1   
    62    23    75 1   
    63    23    76 1   
    64    24    27 1   
    65    24    29 1   
    66    24    30 1   
    67    25    77 1   
    68    25    78 1   
    69    25    79 1   
    70    26    80 1   
    71    26    81 1   
    72    26    82 1   
    73    27    83 1   
    74    27    84 1   
    75    28    85 1   
    76    28    86 1   
    77    28    87 1   
    78    29    88 1   
    79    29    89 1   
    80    29    90 1   
    81    30    39 1   
    82    30    41 1   
    83    31    32 1   
    84    31    37 1   
    85    31    40 1   
    86    31    91 1   
    87    32    33 1   
    88    32    42 1   
    89    32    92 1   
    90    33    35 1   
    91    33    43 1   
    92    33    93 1   
    93    34    35 1   
    94    34    36 1   
    95    34    40 1   
    96    34    94 1   
    97    35    44 1   
    98    35    95 1   
    99    36    45 1   
   100    36    46 1   
   101    42    96 1   
   102    43    97 1   
   103    44    98 1   
@<TRIPOS>SUBSTRUCTURE
     1 FJL         1 TEMP              0 ****  ****    0 ROOT
