@<TRIPOS>MOLECULE
FJL
   98   103     1     0     0
SMALL
abcg2


@<TRIPOS>ATOM
      1 C11         27.6850    -1.9140    19.3600 c6         1 FJL      -0.012000
      2 C12         25.5320    -0.6460    18.3970 c6         1 FJL      -0.007000
      3 C13         26.7170    -0.6950    19.4130 c6         1 FJL      -0.153700
      4 C14         28.9990    -1.5200    20.1470 c6         1 FJL      -0.008800
      5 C15         26.1570    -0.9060    16.9950 c6         1 FJL      -0.047700
      6 C16         28.0360    -2.2770    17.9090 c6         1 FJL      -0.071400
      7 C17         25.2620    -0.6250    15.7530 c6         1 FJL      -0.042000
      8 C18         26.8490    -2.2640    16.9600 c6         1 FJL      -0.070400
      9 C19         28.6330    -1.1650    21.5760 c2         1 FJL      -0.012400
     10 C20         29.6390    -1.2780    22.6950 c6         1 FJL      -0.026500
     11 C21         30.5040    -2.5450    22.5790 c6         1 FJL      -0.032000
     12 C22         30.0430    -2.6570    20.0760 c6         1 FJL      -0.061400
     13 C23         24.9820     0.7960    18.3790 c6         1 FJL      -0.076400
     14 C24         31.1020    -2.6110    21.1710 c6         1 FJL      -0.064400
     15 C25         24.7240     0.8140    15.8840 c6         1 FJL       0.193300
     16 C26         26.3670    -0.4260    20.8680 c          1 FJL       0.581300
     17 C27         27.0110    -3.1540    19.9760 c3         1 FJL      -0.087100
     18 C28         24.0470     1.0790    17.2140 c6         1 FJL      -0.094400
     19 C29         24.3940    -1.6200    18.7490 c3         1 FJL      -0.076100
     20 C30         29.6790    -0.2570    19.5560 c3         1 FJL      -0.086100
     21 C31         27.4250    -0.6520    21.8520 ce         1 FJL      -0.339200
     22 C32         30.4650     0.0160    22.8090 c6         1 FJL      -0.032400
     23 C33         31.6130    -2.5240    23.6400 c6         1 FJL      -0.059400
     24 C34         31.4800    -0.0160    23.9510 c6         1 FJL      -0.183000
     25 C35         24.1250    -1.6340    15.5610 c3         1 FJL      -0.078600
     26 C36         26.1430    -0.6770    14.4950 c3         1 FJL      -0.078600
     27 C37         32.3940    -1.2200    23.7260 c6         1 FJL      -0.039400
     28 C38         29.6340    -3.7780    22.8410 c3         1 FJL      -0.084100
     29 C39         32.3090     1.2720    23.8960 c3         1 FJL      -0.058100
     30 C40         30.7950    -0.0530    25.3510 c          1 FJL       0.722000
     31 C41         24.0620     2.2140    14.0650 c6         1 FJL       0.356300
     32 C42         23.2860     2.0840    12.7510 c6         1 FJL       0.148300
     33 C43         23.5000     3.3470    11.9350 c6         1 FJL       0.167300
     34 C44         23.9060     4.5440    14.1000 c6         1 FJL      -0.006700
     35 C45         23.1370     4.5700    12.7700 c6         1 FJL       0.126300
     36 C46         23.5480     5.7550    14.9870 c          1 FJL       0.732000
     37 O01         23.8190     1.0890    14.8180 os         1 FJL      -0.470000
     38 O02         25.2850    -0.0080    21.2500 o          1 FJL      -0.547100
     39 O03         31.4450    -0.5620    26.2880 o          1 FJL      -0.732500
     40 O04         23.6370     3.3430    14.7810 os         1 FJL      -0.436000
     41 O05         29.6690     0.4800    25.4480 o          1 FJL      -0.732500
     42 O06         23.7310     0.9810    12.0020 oh         1 FJL      -0.719000
     43 O07         22.7250     3.2610    10.7640 oh         1 FJL      -0.665000
     44 O08         23.4330     5.7230    12.0300 oh         1 FJL      -0.796000
     45 O09         23.3660     5.5800    16.1930 o          1 FJL      -0.700000
     46 O10         23.4940     6.8510    14.3640 o          1 FJL      -0.700000
     47 H1          27.3290     0.1750    19.1360 hc         1 FJL       0.069700
     48 H2          26.9620    -0.1570    16.9140 hc         1 FJL       0.040700
     49 H3          28.5100    -3.2620    17.8930 hc         1 FJL       0.034700
     50 H4          28.7760    -1.5850    17.5000 hc         1 FJL       0.034700
     51 H5          26.1470    -3.0700    17.1900 hc         1 FJL       0.034200
     52 H6          27.2230    -2.4830    15.9600 hc         1 FJL       0.034200
     53 H7          29.0650    -1.3450    23.6260 hc         1 FJL       0.093700
     54 H8          29.5550    -3.6310    20.1070 hc         1 FJL       0.029200
     55 H9          30.5370    -2.6120    19.1020 hc         1 FJL       0.029200
     56 H10         25.8310     1.4870    18.3140 hc         1 FJL       0.054700
     57 H11         24.4700     1.0240    19.3110 hc         1 FJL       0.054700
     58 H12         31.7260    -3.5070    21.0890 hc         1 FJL       0.033200
     59 H13         31.7770    -1.7670    21.0080 hc         1 FJL       0.033200
     60 H14         25.5900     1.4890    15.8070 h1         1 FJL       0.043700
     61 H15         26.6640    -3.0090    20.9980 hc         1 FJL       0.033367
     62 H16         26.1470    -3.4560    19.3890 hc         1 FJL       0.033367
     63 H17         27.6830    -4.0120    19.9850 hc         1 FJL       0.033367
     64 H18         23.7390     2.1270    17.2520 hc         1 FJL       0.066200
     65 H19         23.1280     0.4900    17.2920 hc         1 FJL       0.066200
     66 H20         24.2650    -1.7170    19.8250 hc         1 FJL       0.032033
     67 H21         23.4400    -1.2730    18.3560 hc         1 FJL       0.032033
     68 H22         24.5420    -2.6230    18.3510 hc         1 FJL       0.032033
     69 H23         30.6990    -0.1660    19.9250 hc         1 FJL       0.037700
     70 H24         29.7500    -0.3090    18.4710 hc         1 FJL       0.037700
     71 H25         29.1680     0.6680    19.8160 hc         1 FJL       0.037700
     72 H26         27.1790    -0.3780    22.8740 ha         1 FJL       0.214000
     73 H27         31.0060     0.2110    21.8800 hc         1 FJL       0.030700
     74 H28         29.7780     0.8530    22.9430 hc         1 FJL       0.030700
     75 H29         31.1660    -2.7230    24.6190 hc         1 FJL       0.036200
     76 H30         32.2950    -3.3590    23.4480 hc         1 FJL       0.036200
     77 H31         23.3260    -1.5350    16.2930 hc         1 FJL       0.029533
     78 H32         23.6770    -1.5210    14.5730 hc         1 FJL       0.029533
     79 H33         24.5010    -2.6560    15.6240 hc         1 FJL       0.029533
     80 H34         27.0390    -0.0610    14.6050 hc         1 FJL       0.029533
     81 H35         26.4620    -1.6920    14.2610 hc         1 FJL       0.029533
     82 H36         25.5990    -0.3150    13.6220 hc         1 FJL       0.029533
     83 H37         33.1320    -1.2920    24.5270 hc         1 FJL       0.020700
     84 H38         32.9650    -1.0630    22.8020 hc         1 FJL       0.020700
     85 H39         29.2300    -3.7490    23.8550 hc         1 FJL       0.025367
     86 H40         28.7850    -3.8570    22.1610 hc         1 FJL       0.025367
     87 H41         30.2210    -4.6940    22.7430 hc         1 FJL       0.025367
     88 H42         33.0710     1.2910    24.6790 hc         1 FJL       0.015033
     89 H43         32.8210     1.3620    22.9350 hc         1 FJL       0.015033
     90 H44         31.6800     2.1560    24.0200 hc         1 FJL       0.015033
     91 H45         25.1410     2.3120    13.8350 h2         1 FJL       0.014700
     92 H46         22.2160     1.9960    12.9960 h1         1 FJL       0.057700
     93 H47         24.5730     3.4180    11.6890 h1         1 FJL       0.033700
     94 H48         24.9850     4.6170    13.8670 h1         1 FJL       0.026700
     95 H49         22.0600     4.5090    13.0050 h1         1 FJL       0.042700
     96 H51         23.5290     0.1840    12.5030 ho         1 FJL       0.503000
     97 H52         22.8610     4.0710    10.2610 ho         1 FJL       0.450000
     98 H53         23.4710     6.4240    12.7260 ho         1 FJL       0.579000
@<TRIPOS>BOND
     1     1     3 1   
     2     1     4 1   
     3     1     6 1   
     4     1    17 1   
     5     2     3 1   
     6     2     5 1   
     7     2    13 1   
     8     2    19 1   
     9     3    16 1   
    10     3    47 1   
    11     4     9 1   
    12     4    12 1   
    13     4    20 1   
    14     5     7 1   
    15     5     8 1   
    16     5    48 1   
    17     6     8 1   
    18     6    49 1   
    19     6    50 1   
    20     7    15 1   
    21     7    25 1   
    22     7    26 1   
    23     8    51 1   
    24     8    52 1   
    25     9    10 1   
    26     9    21 2   
    27    10    11 1   
    28    10    22 1   
    29    10    53 1   
    30    11    14 1   
    31    11    23 1   
    32    11    28 1   
    33    12    14 1   
    34    12    54 1   
    35    12    55 1   
    36    13    18 1   
    37    13    56 1   
    38    13    57 1   
    39    14    58 1   
    40    14    59 1   
    41    15    18 1   
    42    15    37 1   
    43    15    60 1   
    44    16    21 1   
    45    16    38 2   
    46    17    61 1   
    47    17    62 1   
    48    17    63 1   
    49    18    64 1   
    50    18    65 1   
    51    19    66 1   
    52    19    67 1   
    53    19    68 1   
    54    20    69 1   
    55    20    70 1   
    56    20    71 1   
    57    21    72 1   
    58    22    24 1   
    59    22    73 1   
    60    22    74 1   
    61    23    27 1   
    62    23    75 1   
    63    23    76 1   
    64    24    27 1   
    65    24    29 1   
    66    24    30 1   
    67    25    77 1   
    68    25    78 1   
    69    25    79 1   
    70    26    80 1   
    71    26    81 1   
    72    26    82 1   
    73    27    83 1   
    74    27    84 1   
    75    28    85 1   
    76    28    86 1   
    77    28    87 1   
    78    29    88 1   
    79    29    89 1   
    80    29    90 1   
    81    30    39 1   
    82    30    41 1   
    83    31    32 1   
    84    31    37 1   
    85    31    40 1   
    86    31    91 1   
    87    32    33 1   
    88    32    42 1   
    89    32    92 1   
    90    33    35 1   
    91    33    43 1   
    92    33    93 1   
    93    34    35 1   
    94    34    36 1   
    95    34    40 1   
    96    34    94 1   
    97    35    44 1   
    98    35    95 1   
    99    36    45 1   
   100    36    46 1   
   101    42    96 1   
   102    43    97 1   
   103    44    98 1   
@<TRIPOS>SUBSTRUCTURE
     1 FJL         1 TEMP              0 ****  ****    0 ROOT
