@<TRIPOS>MOLECULE
FJM
  110   111     1     0     0
SMALL
bcc


@<TRIPOS>ATOM
      1 C1           8.1090    -1.6140     1.8420 c6         1 FJM       0.123100
      2 C2           7.0310    -2.6830     2.0150 c6         1 FJM       0.117100
      3 C3           7.0960    -3.6710     0.8590 c6         1 FJM       0.092100
      4 C4           6.9820    -2.9240    -0.4730 c6         1 FJM       0.312900
      5 C5           7.9600    -0.9740     0.4680 c6         1 FJM       0.150100
      6 C10          1.5970    -0.9000    -1.2270 c3         1 FJM       0.114100
      7 C11          0.3590    -1.7320    -0.8900 c3         1 FJM      -0.107400
      8 C15          4.4380     1.4090    -1.1300 c          1 FJM       0.683100
      9 C16         -5.2830     0.0730     0.4510 c3         1 FJM       0.104000
     10 C17         -6.5470    -0.7550     0.2570 c3         1 FJM      -0.099400
     11 C18         -7.8080     0.0890     0.3810 c3         1 FJM      -0.072400
     12 C19         -9.0870    -0.7210     0.2100 c3         1 FJM      -0.074400
     13 C20        -10.3510     0.1220     0.3230 c3         1 FJM      -0.074400
     14 C23        -14.1660    -0.6840     0.1000 c3         1 FJM      -0.031100
     15 C24        -15.4130     0.1510     0.1700 ca         1 FJM      -0.077300
     16 C25        -15.9660     0.5080     1.3990 ca         1 FJM      -0.125500
     17 C26        -17.0990     1.3080     1.4670 ca         1 FJM      -0.127500
     18 O2           9.4020    -2.1570     1.9580 oh         1 FJM      -0.591800
     19 C6           9.0450     0.0420     0.1810 c3         1 FJM       0.147400
     20 C8           4.1380    -0.9790    -1.6720 c3         1 FJM       0.086700
     21 C9           2.8880    -1.7470    -1.1900 c3         1 FJM       0.101100
     22 C13         -2.1600    -1.7770    -0.6640 c3         1 FJM      -0.160400
     23 C14         -3.4290    -0.9630    -0.7900 c          1 FJM       0.665100
     24 C21        -11.6280    -0.6920     0.1610 c3         1 FJM      -0.075400
     25 C22        -12.8930     0.1490     0.2590 c3         1 FJM      -0.073400
     26 C12         -0.9290    -0.9230    -0.9740 c3         1 FJM      -0.067400
     27 N1           4.4800     0.1120    -0.7910 ns         1 FJM      -0.562900
     28 O3           7.2490    -3.3120     3.2560 oh         1 FJM      -0.610800
     29 C30          9.2850     8.3780     1.5430 c3         1 FJM      -0.088100
     30 C31          8.8420     7.3690     0.4930 c3         1 FJM      -0.075400
     31 C32          7.8480     6.3480     1.0320 c3         1 FJM      -0.076400
     32 C33          7.4060     5.3300    -0.0110 c3         1 FJM      -0.074400
     33 C34          6.3750     4.3380     0.5110 c3         1 FJM      -0.074400
     34 C35          5.9530     3.3240    -0.5440 c3         1 FJM      -0.073400
     35 C36          4.8660     2.3740    -0.0480 c3         1 FJM      -0.152400
     36 O9           4.1030     1.8010    -2.2410 o          1 FJM      -0.607100
     37 O5           5.7030    -2.3880    -0.5670 os         1 FJM      -0.433600
     38 O            7.9830    -1.9470    -0.5630 os         1 FJM      -0.403600
     39 O4           6.0720    -4.6190     1.0340 oh         1 FJM      -0.588800
     40 O6           2.7280    -2.9220    -1.9520 oh         1 FJM      -0.582800
     41 O7           1.6830     0.2370    -0.3980 oh         1 FJM      -0.577800
     42 O8          -3.8190    -0.5450    -1.8740 o          1 FJM      -0.604100
     43 N2          -4.0640    -0.7000     0.3630 ns         1 FJM      -0.573900
     44 C27        -17.7010     1.7670     0.3020 ca         1 FJM      -0.130000
     45 C28        -17.1590     1.4200    -0.9280 ca         1 FJM      -0.127500
     46 C29        -16.0250     0.6210    -0.9900 ca         1 FJM      -0.125500
     47 H1           7.9430    -0.8290     2.5960 h1         1 FJM       0.049700
     48 H2           6.0530    -2.1810     2.0010 h1         1 FJM       0.060700
     49 H3           8.0820    -4.1530     0.8690 h1         1 FJM       0.065700
     50 H4           7.1770    -3.6110    -1.3090 h2         1 FJM       0.071700
     51 H5           7.0040    -0.4350     0.4660 h1         1 FJM       0.052700
     52 H6           1.4820    -0.5060    -2.2450 h1         1 FJM       0.079700
     53 H7           0.2910    -2.5800    -1.5740 hc         1 FJM       0.048700
     54 H8           0.4690    -2.1570     0.1160 hc         1 FJM       0.048700
     55 H9          -5.2460     0.8770    -0.2860 h1         1 FJM       0.052700
     56 H10         -5.2990     0.5490     1.4340 h1         1 FJM       0.052700
     57 H11         -6.5180    -1.2340    -0.7260 hc         1 FJM       0.047200
     58 H12         -6.5670    -1.5610     0.9980 hc         1 FJM       0.047200
     59 H13         -7.8210     0.5860     1.3570 hc         1 FJM       0.038700
     60 H14         -7.7840     0.8910    -0.3660 hc         1 FJM       0.038700
     61 H15         -9.0720    -1.2230    -0.7640 hc         1 FJM       0.038700
     62 H16         -9.1130    -1.5180     0.9610 hc         1 FJM       0.038700
     63 H17        -10.3640     0.6300     1.2940 hc         1 FJM       0.038200
     64 H18        -10.3270     0.9150    -0.4330 hc         1 FJM       0.038200
     65 H19        -14.1890    -1.4520     0.8800 hc         1 FJM       0.045700
     66 H20        -14.1320    -1.2140    -0.8560 hc         1 FJM       0.045700
     67 H21        -15.5070     0.1530     2.3140 ha         1 FJM       0.127500
     68 H22        -17.5160     1.5670     2.4320 ha         1 FJM       0.128500
     69 H23          9.3910     1.3880    -1.1650 ho         1 FJM       0.406000
     70 H24          9.4350    -2.6720     2.7720 ho         1 FJM       0.423000
     71 H25          9.1000     0.7240     1.0390 h1         1 FJM       0.037200
     72 H26         10.0180    -0.4570     0.1020 h1         1 FJM       0.037200
     73 H27          5.1710    -2.6790    -2.5470 h1         1 FJM       0.051700
     74 H28          6.1710    -1.2540    -2.2430 h1         1 FJM       0.051700
     75 H29          3.9200    -0.5480    -2.6530 h1         1 FJM       0.089700
     76 H30          3.0510    -2.0830    -0.1590 h1         1 FJM       0.080700
     77 H31         -2.0660    -2.2120     0.3340 hc         1 FJM       0.055700
     78 H32         -2.2190    -2.6080    -1.3710 hc         1 FJM       0.055700
     79 H33        -11.6100    -1.2080    -0.8060 hc         1 FJM       0.037200
     80 H34        -11.6560    -1.4790     0.9230 hc         1 FJM       0.037200
     81 H35        -12.8750     0.9310    -0.5080 hc         1 FJM       0.042700
     82 H36        -12.9180     0.6670     1.2230 hc         1 FJM       0.042700
     83 H37         -0.8930    -0.0820    -0.2780 hc         1 FJM       0.058700
     84 H38         -1.0270    -0.4980    -1.9760 hc         1 FJM       0.058700
     85 H39          4.7490    -0.1300     0.1480 hn         1 FJM       0.312500
     86 H40          6.6850    -4.0910     3.3040 ho         1 FJM       0.430000
     87 H41          9.7890     7.8850     2.3760 hc         1 FJM       0.031367
     88 H42          9.9750     9.1140     1.1270 hc         1 FJM       0.031367
     89 H43          8.4300     8.9210     1.9510 hc         1 FJM       0.031367
     90 H44          8.3930     7.8970    -0.3540 hc         1 FJM       0.037200
     91 H45          9.7170     6.8460     0.0940 hc         1 FJM       0.037200
     92 H46          8.2920     5.8230     1.8860 hc         1 FJM       0.036200
     93 H47          6.9690     6.8720     1.4240 hc         1 FJM       0.036200
     94 H48          6.9900     5.8580    -0.8760 hc         1 FJM       0.038200
     95 H49          8.2820     4.7860    -0.3820 hc         1 FJM       0.038200
     96 H50          6.7800     3.8120     1.3820 hc         1 FJM       0.034700
     97 H51          5.4940     4.8830     0.8670 hc         1 FJM       0.034700
     98 H52          5.5910     3.8500    -1.4300 hc         1 FJM       0.058200
     99 H53          6.8240     2.7400    -0.8570 hc         1 FJM       0.058200
    100 H54          3.9850     2.9470     0.2560 hc         1 FJM       0.053200
    101 H55          5.2130     1.8450     0.8440 hc         1 FJM       0.053200
    102 H56          6.2950    -5.4110     0.5360 ho         1 FJM       0.414000
    103 H57          2.5250    -2.6750    -2.8610 ho         1 FJM       0.401000
    104 H58          1.7890    -0.0590     0.5120 ho         1 FJM       0.393000
    105 H59         -3.7040    -1.1010     1.2120 hn         1 FJM       0.309500
    106 H60        -18.5860     2.3880     0.3540 ha         1 FJM       0.129000
    107 H61        -17.6220     1.7680    -1.8430 ha         1 FJM       0.128500
    108 H62        -15.6120     0.3530    -1.9560 ha         1 FJM       0.127500
    109 O1           8.7140     0.7240    -1.0060 oh         1 FJM      -0.593800
    110 C7           5.3620    -1.8690    -1.8360 c3         1 FJM       0.124400
@<TRIPOS>BOND
     1     1     2 1   
     2     1     5 1   
     3     1    18 1   
     4     1    47 1   
     5     2     3 1   
     6     2    28 1   
     7     2    48 1   
     8     3     4 1   
     9     3    39 1   
    10     3    49 1   
    11     4    37 1   
    12     4    38 1   
    13     4    50 1   
    14     5    19 1   
    15     5    38 1   
    16     5    51 1   
    17     6     7 1   
    18     6    21 1   
    19     6    41 1   
    20     6    52 1   
    21     7    26 1   
    22     7    53 1   
    23     7    54 1   
    24     8    27 1   
    25     8    35 1   
    26     8    36 2   
    27     9    10 1   
    28     9    43 1   
    29     9    55 1   
    30     9    56 1   
    31    10    11 1   
    32    10    57 1   
    33    10    58 1   
    34    11    12 1   
    35    11    59 1   
    36    11    60 1   
    37    12    13 1   
    38    12    61 1   
    39    12    62 1   
    40    13    24 1   
    41    13    63 1   
    42    13    64 1   
    43    14    15 1   
    44    14    25 1   
    45    14    65 1   
    46    14    66 1   
    47    15    16 ar  
    48    15    46 ar  
    49    16    17 ar  
    50    16    67 1   
    51    17    44 ar  
    52    17    68 1   
    53    18    70 1   
    54    19    71 1   
    55    19    72 1   
    56    19   109 1   
    57    20    21 1   
    58    20    27 1   
    59    20    75 1   
    60    20   110 1   
    61    21    40 1   
    62    21    76 1   
    63    22    23 1   
    64    22    26 1   
    65    22    77 1   
    66    22    78 1   
    67    23    42 2   
    68    23    43 1   
    69    24    25 1   
    70    24    79 1   
    71    24    80 1   
    72    25    81 1   
    73    25    82 1   
    74    26    83 1   
    75    26    84 1   
    76    27    85 1   
    77    28    86 1   
    78    29    30 1   
    79    29    87 1   
    80    29    88 1   
    81    29    89 1   
    82    30    31 1   
    83    30    90 1   
    84    30    91 1   
    85    31    32 1   
    86    31    92 1   
    87    31    93 1   
    88    32    33 1   
    89    32    94 1   
    90    32    95 1   
    91    33    34 1   
    92    33    96 1   
    93    33    97 1   
    94    34    35 1   
    95    34    98 1   
    96    34    99 1   
    97    35   100 1   
    98    35   101 1   
    99    37   110 1   
   100    39   102 1   
   101    40   103 1   
   102    41   104 1   
   103    43   105 1   
   104    44    45 ar  
   105    44   106 1   
   106    45    46 ar  
   107    45   107 1   
   108    46   108 1   
   109    69   109 1   
   110    73   110 1   
   111    74   110 1   
@<TRIPOS>SUBSTRUCTURE
     1 FJM         1 TEMP              0 ****  ****    0 ROOT
