@<TRIPOS>MOLECULE
FJM
  110   111     1     0     0
SMALL
No Charge or Current Charge


@<TRIPOS>ATOM
      1 C1           8.6550    -0.2190     1.0830 c6         1 FJM       0.146300
      2 C2           7.4140    -0.6490     1.9190 c6         1 FJM       0.140300
      3 C3           7.0510    -2.1480     1.6710 c6         1 FJM       0.115300
      4 C4           6.9020    -2.4220     0.1370 c6         1 FJM       0.359300
      5 C5           8.4020    -0.5770    -0.4190 c6         1 FJM       0.173300
      6 C10          1.5240    -0.9630    -1.4970 c3         1 FJM       0.137300
      7 C11          0.2450    -1.7330    -1.0620 c3         1 FJM      -0.107400
      8 C15          5.1320     1.1520    -2.2760 c          1 FJM       0.616100
      9 C16         -5.3980     0.2620     0.4330 c3         1 FJM       0.104000
     10 C17         -6.6520    -0.6170     0.2500 c3         1 FJM      -0.099400
     11 C18         -7.9680     0.1740     0.4150 c3         1 FJM      -0.072400
     12 C19         -9.2260    -0.7030     0.2330 c3         1 FJM      -0.074400
     13 C20        -10.5430     0.0880     0.3980 c3         1 FJM      -0.074400
     14 C23        -14.3770    -0.8700     0.1990 c3         1 FJM      -0.031100
     15 C24        -15.6600    -0.0660     0.3660 ca         1 FJM      -0.077300
     16 C25        -16.2570     0.0650     1.6350 ca         1 FJM      -0.107500
     17 C26        -17.4380     0.8110     1.7900 ca         1 FJM      -0.109500
     18 O2           9.8270    -0.8640     1.6230 oh         1 FJM      -0.714000
     19 C6           9.6300    -0.2310    -1.3260 c3         1 FJM       0.170600
     20 C8           4.1090    -1.1570    -2.0860 c3         1 FJM       0.086700
     21 C9           2.8390    -1.8300    -1.4530 c3         1 FJM       0.124300
     22 C13         -2.3220    -1.7250    -0.7880 c3         1 FJM      -0.160400
     23 C14         -3.5980    -0.8840    -0.9060 c          1 FJM       0.598100
     24 C21        -11.8010    -0.7890     0.2160 c3         1 FJM      -0.075400
     25 C22        -13.1170     0.0030     0.3800 c3         1 FJM      -0.073400
     26 C12         -1.0640    -0.9090    -1.1690 c3         1 FJM      -0.067400
     27 N1           4.2490     0.2610    -1.7160 ns         1 FJM      -0.495900
     28 O3           7.6560    -0.4300     3.3220 oh         1 FJM      -0.673000
     29 C30          9.1100     7.0540     3.2510 c3         1 FJM      -0.088100
     30 C31          9.0150     5.6830     2.5540 c3         1 FJM      -0.075400
     31 C32          7.7900     5.5630     1.6210 c3         1 FJM      -0.076400
     32 C33          7.6960     4.1880     0.9240 c3         1 FJM      -0.074400
     33 C34          6.4710     4.0650    -0.0090 c3         1 FJM      -0.074400
     34 C35          6.3850     2.6880    -0.6990 c3         1 FJM      -0.073400
     35 C36          5.1510     2.5360    -1.6200 c3         1 FJM      -0.152400
     36 O9           5.8330     0.8690    -3.2360 o          1 FJM      -0.607100
     37 O5           5.7310    -1.7470    -0.3680 os         1 FJM      -0.480000
     38 O            8.0830    -1.9870    -0.5750 os         1 FJM      -0.450000
     39 O4           5.8410    -2.4820     2.3940 oh         1 FJM      -0.711000
     40 O6           2.6280    -3.0960    -2.1150 oh         1 FJM      -0.645000
     41 O7           1.6570     0.1870    -0.6410 oh         1 FJM      -0.640000
     42 O8          -4.0940    -0.5910    -1.9840 o          1 FJM      -0.604100
     43 N2          -4.1600    -0.5080     0.2930 ns         1 FJM      -0.506900
     44 C27        -18.0290     1.4320     0.6770 ca         1 FJM      -0.112000
     45 C28        -17.4370     1.3070    -0.5920 ca         1 FJM      -0.109500
     46 C29        -16.2550     0.5610    -0.7460 ca         1 FJM      -0.107500
     47 H1           8.7610     0.8730     1.1630 h1         1 FJM       0.049700
     48 H2           6.5610    -0.0340     1.5910 h1         1 FJM       0.060700
     49 H3           7.8810    -2.7710     2.0350 h1         1 FJM       0.065700
     50 H4           6.7780    -3.5060    -0.0120 h2         1 FJM       0.071700
     51 H5           7.5510     0.0150    -0.7850 h1         1 FJM       0.052700
     52 H6           1.3830    -0.6300    -2.5350 h1         1 FJM       0.079700
     53 H7           0.1280    -2.6250    -1.6900 hc         1 FJM       0.048700
     54 H8           0.3670    -2.0930    -0.0320 hc         1 FJM       0.048700
     55 H9          -5.4020     1.0730    -0.3070 h1         1 FJM       0.052700
     56 H10         -5.4140     0.7170     1.4320 h1         1 FJM       0.052700
     57 H11         -6.6310    -1.0760    -0.7460 hc         1 FJM       0.047200
     58 H12         -6.6270    -1.4340     0.9820 hc         1 FJM       0.047200
     59 H13         -7.9900     0.6330     1.4110 hc         1 FJM       0.038700
     60 H14         -7.9900     0.9920    -0.3160 hc         1 FJM       0.038700
     61 H15         -9.2050    -1.1620    -0.7630 hc         1 FJM       0.038700
     62 H16         -9.2040    -1.5210     0.9640 hc         1 FJM       0.038700
     63 H17        -10.5650     0.5470     1.3940 hc         1 FJM       0.038200
     64 H18        -10.5650     0.9060    -0.3330 hc         1 FJM       0.038200
     65 H19        -14.3530    -1.6940     0.9240 hc         1 FJM       0.045700
     66 H20        -14.3530    -1.3370    -0.7940 hc         1 FJM       0.045700
     67 H21        -15.8040    -0.4110     2.5020 ha         1 FJM       0.109500
     68 H22        -17.8940     0.9080     2.7730 ha         1 FJM       0.110500
     69 H23         10.2760    -0.3630    -3.1840 ho         1 FJM       0.505000
     70 H24          9.6770    -0.8530     2.6000 ho         1 FJM       0.522000
     71 H25          9.8460     0.8400    -1.2080 h1         1 FJM       0.037200
     72 H26         10.5030    -0.7810    -0.9490 h1         1 FJM       0.037200
     73 H27          5.2570    -3.0220    -1.9710 h1         1 FJM       0.051700
     74 H28          6.2210    -1.6000    -2.4020 h1         1 FJM       0.051700
     75 H29          3.9800    -1.1850    -3.1760 h1         1 FJM       0.089700
     76 H30          3.0600    -2.0130    -0.3920 h1         1 FJM       0.080700
     77 H31         -2.2040    -2.0850     0.2410 hc         1 FJM       0.055700
     78 H32         -2.4020    -2.5790    -1.4710 hc         1 FJM       0.055700
     79 H33        -11.7790    -1.2480    -0.7800 hc         1 FJM       0.037200
     80 H34        -11.7790    -1.6070     0.9470 hc         1 FJM       0.037200
     81 H35        -13.1410     0.8210    -0.3500 hc         1 FJM       0.042700
     82 H36        -13.1410     0.4620     1.3760 hc         1 FJM       0.042700
     83 H37         -1.0040    -0.0270    -0.5190 hc         1 FJM       0.058700
     84 H38         -1.1720    -0.5380    -2.1970 hc         1 FJM       0.058700
     85 H39          3.6450     0.6130    -0.9810 hn         1 FJM       0.312500
     86 H40          6.9560    -0.9480     3.7860 ho         1 FJM       0.469000
     87 H41          8.2210     7.2390     3.8660 hc         1 FJM       0.031367
     88 H42          9.9920     7.0920     3.9010 hc         1 FJM       0.031367
     89 H43          9.1930     7.8600     2.5110 hc         1 FJM       0.031367
     90 H44          9.9310     5.5130     1.9760 hc         1 FJM       0.037200
     91 H45          8.9680     4.8980     3.3190 hc         1 FJM       0.037200
     92 H46          6.8760     5.7350     2.2020 hc         1 FJM       0.036200
     93 H47          7.8390     6.3500     0.8580 hc         1 FJM       0.036200
     94 H48          8.6100     4.0150     0.3420 hc         1 FJM       0.038200
     95 H49          7.6480     3.4010     1.6870 hc         1 FJM       0.038200
     96 H50          5.5560     4.2360     0.5720 hc         1 FJM       0.034700
     97 H51          6.5180     4.8510    -0.7740 hc         1 FJM       0.034700
     98 H52          7.2970     2.5220    -1.2860 hc         1 FJM       0.058200
     99 H53          6.3510     1.9080     0.0700 hc         1 FJM       0.058200
    100 H54          5.1990     3.3020    -2.4030 hc         1 FJM       0.053200
    101 H55          4.2500     2.6740    -1.0100 hc         1 FJM       0.053200
    102 H56          5.0950    -2.2500     1.7900 ho         1 FJM       0.513000
    103 H57          2.2690    -2.9130    -3.0110 ho         1 FJM       0.440000
    104 H58          1.2770    -0.0560     0.2310 ho         1 FJM       0.432000
    105 H59         -3.6770    -0.8020     1.1340 hn         1 FJM       0.309500
    106 H60        -18.9430     2.0100     0.7970 ha         1 FJM       0.111000
    107 H61        -17.8920     1.7890    -1.4540 ha         1 FJM       0.110500
    108 H62        -15.8020     0.4710    -1.7310 ha         1 FJM       0.109500
    109 O1           9.4240    -0.5400    -2.7210 oh         1 FJM      -0.716000
    110 C7           5.4060    -1.9550    -1.7590 c3         1 FJM       0.147600
@<TRIPOS>BOND
     1     1     2 1   
     2     1     5 1   
     3     1    18 1   
     4     1    47 1   
     5     2     3 1   
     6     2    28 1   
     7     2    48 1   
     8     3     4 1   
     9     3    39 1   
    10     3    49 1   
    11     4    37 1   
    12     4    38 1   
    13     4    50 1   
    14     5    19 1   
    15     5    38 1   
    16     5    51 1   
    17     6     7 1   
    18     6    21 1   
    19     6    41 1   
    20     6    52 1   
    21     7    26 1   
    22     7    53 1   
    23     7    54 1   
    24     8    27 1   
    25     8    35 1   
    26     8    36 2   
    27     9    10 1   
    28     9    43 1   
    29     9    55 1   
    30     9    56 1   
    31    10    11 1   
    32    10    57 1   
    33    10    58 1   
    34    11    12 1   
    35    11    59 1   
    36    11    60 1   
    37    12    13 1   
    38    12    61 1   
    39    12    62 1   
    40    13    24 1   
    41    13    63 1   
    42    13    64 1   
    43    14    15 1   
    44    14    25 1   
    45    14    65 1   
    46    14    66 1   
    47    15    16 ar  
    48    15    46 ar  
    49    16    17 ar  
    50    16    67 1   
    51    17    44 ar  
    52    17    68 1   
    53    18    70 1   
    54    19    71 1   
    55    19    72 1   
    56    19   109 1   
    57    20    21 1   
    58    20    27 1   
    59    20    75 1   
    60    20   110 1   
    61    21    40 1   
    62    21    76 1   
    63    22    23 1   
    64    22    26 1   
    65    22    77 1   
    66    22    78 1   
    67    23    42 2   
    68    23    43 1   
    69    24    25 1   
    70    24    79 1   
    71    24    80 1   
    72    25    81 1   
    73    25    82 1   
    74    26    83 1   
    75    26    84 1   
    76    27    85 1   
    77    28    86 1   
    78    29    30 1   
    79    29    87 1   
    80    29    88 1   
    81    29    89 1   
    82    30    31 1   
    83    30    90 1   
    84    30    91 1   
    85    31    32 1   
    86    31    92 1   
    87    31    93 1   
    88    32    33 1   
    89    32    94 1   
    90    32    95 1   
    91    33    34 1   
    92    33    96 1   
    93    33    97 1   
    94    34    35 1   
    95    34    98 1   
    96    34    99 1   
    97    35   100 1   
    98    35   101 1   
    99    37   110 1   
   100    39   102 1   
   101    40   103 1   
   102    41   104 1   
   103    43   105 1   
   104    44    45 ar  
   105    44   106 1   
   106    45    46 ar  
   107    45   107 1   
   108    46   108 1   
   109    69   109 1   
   110    73   110 1   
   111    74   110 1   
@<TRIPOS>SUBSTRUCTURE
     1 FJM         1 TEMP              0 ****  ****    0 ROOT
