@<TRIPOS>MOLECULE
FJN
   95   102     1     0     0
SMALL
bcc


@<TRIPOS>ATOM
      1 CAA         -8.5920    -0.6440     2.2640 c6         1 FJN      -0.067400
      2 CAB         -9.5750     0.4820     2.5710 c6         1 FJN      -0.077400
      3 CAC        -10.9830     0.1500     2.0960 c6         1 FJN      -0.078400
      4 CAD        -10.9850    -0.2730     0.6320 c6         1 FJN      -0.063400
      5 CAE         -9.9890    -1.3970     0.3770 c6         1 FJN       0.123500
      6 CAF         -8.5720    -0.9390     0.7520 c6         1 FJN      -0.062500
      7 CAG         -7.5680    -1.9830     0.3420 c2         1 FJN       0.185800
      8 CAH         -7.9520    -2.9660    -0.5680 ca         1 FJN      -0.207000
      9 CAI         -9.1950    -2.7410    -1.3040 ca         1 FJN       0.068000
     10 CAJ         -9.3480    -3.4850    -2.5390 ca         1 FJN      -0.119000
     11 CAK         -8.4730    -4.4440    -2.9090 ca         1 FJN      -0.111000
     12 CAL         -7.3220    -4.7460    -2.1100 ca         1 FJN      -0.138000
     13 CAM         -7.0730    -4.0160    -0.9980 ca         1 FJN      -0.112000
     14 CAO         -5.6200    -0.7120     1.2440 c3         1 FJN       0.212800
     15 CAQ         -4.4500    -0.4370     0.2980 c3         1 FJN       0.001300
     16 CAR         -2.4500     2.1930     1.6240 cc         1 FJN       0.158600
     17 CAS         -2.6370     0.8420     1.4760 cd         1 FJN      -0.191600
     18 CAW         -1.3940     2.9110     2.3730 c3         1 FJN       0.129500
     19 CAX          0.9440     3.6560     2.4120 c3         1 FJN       0.178100
     20 CAY          2.2070     3.9030     1.6430 ca         1 FJN      -0.094300
     21 CAZ          2.7000     5.1930     1.4890 ca         1 FJN      -0.259300
     22 CBA          3.8800     5.3570     0.7840 ca         1 FJN       0.469200
     23 CBB          4.0870     3.1300     0.3860 ca         1 FJN       0.593200
     24 CBC          2.9180     2.8490     1.0970 ca         1 FJN      -0.305300
     25 CBE          6.1270     2.0080    -0.4100 c          1 FJN       0.802100
     26 CBI          7.8140     0.5120    -1.3680 ca         1 FJN       0.069600
     27 CBJ          8.1580    -0.8290    -1.2600 ca         1 FJN      -0.122300
     28 CBK          9.4480    -1.2500    -1.5330 ca         1 FJN      -0.136600
     29 CBL         10.4520    -0.3690    -1.8910 ca         1 FJN      -0.060000
     30 CBM         10.1140     0.9730    -1.9910 ca         1 FJN      -0.117000
     31 CBN          8.8150     1.4090    -1.7450 ca         1 FJN      -0.103000
     32 CBO          9.5190    -2.7170    -1.3440 c          1 FJN       0.725100
     33 CBP          7.3250    -2.0100    -0.8590 c5         1 FJN       0.156000
     34 CBQ          6.7910    -1.9630     0.5740 c6         1 FJN      -0.085400
     35 CBR          6.2770    -3.3360     0.9980 c6         1 FJN      -0.073400
     36 CBS          7.3530    -4.4050     0.8380 c6         1 FJN      -0.100400
     37 CBT          7.8780    -4.4310    -0.5930 c6         1 FJN       0.110000
     38 CBX         -0.4550     4.1230     0.4190 c3         1 FJN       0.106100
     39 NAN        -10.1330    -1.9250    -0.9520 n2         1 FJN      -0.301200
     40 NAP         -6.3150    -1.9060     0.8140 nu         1 FJN      -0.764000
     41 NAT         -3.7330     0.7500     0.7120 na         1 FJN       0.126400
     42 NAU         -4.2070     1.9510     0.4140 nd         1 FJN      -0.147800
     43 NAV         -3.4410     2.8260     0.9560 nc         1 FJN      -0.330000
     44 NBD          4.5530     4.3580     0.2290 nb         1 FJN      -0.635000
     45 NBF          4.7640     2.0780    -0.2150 ns         1 FJN      -0.581400
     46 NBH          6.4900     0.9070    -1.1380 ns         1 FJN      -0.494100
     47 NBV          8.2700    -3.1040    -1.0020 n          1 FJN      -0.481800
     48 NBW         -0.1740     3.1810     1.5330 nx         1 FJN      -0.692400
     49 OBG          6.9190     2.8180     0.0200 o          1 FJN      -0.545100
     50 OBU         10.4990    -3.4320    -1.4720 o          1 FJN      -0.601500
     51 H1          -7.6140    -0.3780     2.6580 hc         1 FJN       0.041200
     52 H2          -8.8930    -1.5570     2.7880 hc         1 FJN       0.041200
     53 H3          -9.5720     0.6850     3.6440 hc         1 FJN       0.040700
     54 H4          -9.2280     1.3980     2.0810 hc         1 FJN       0.040700
     55 H5         -11.3840    -0.6670     2.7050 hc         1 FJN       0.048200
     56 H6         -11.6470     1.0040     2.2470 hc         1 FJN       0.048200
     57 H7         -11.9820    -0.6080     0.3330 hc         1 FJN       0.056700
     58 H8         -10.7320     0.5800    -0.0080 hc         1 FJN       0.056700
     59 H9         -10.2280    -3.2740    -3.1340 ha         1 FJN       0.152000
     60 H10         -8.6420    -5.0050    -3.8210 ha         1 FJN       0.137000
     61 H11         -6.6550    -5.5440    -2.4060 ha         1 FJN       0.133000
     62 H12         -6.1900    -4.2630    -0.4180 ha         1 FJN       0.105000
     63 H13         -5.2510    -0.8250     2.2660 h1         1 FJN       0.072700
     64 H14         -6.2870     0.1450     1.2190 h1         1 FJN       0.072700
     65 H15         -3.7450    -1.2670     0.2910 h1         1 FJN       0.089200
     66 H16         -4.8060    -0.2820    -0.7200 h1         1 FJN       0.089200
     67 H17         -2.0950    -0.0140     1.8410 h4         1 FJN       0.200000
     68 H18         -1.7480     3.8760     2.7320 hx         1 FJN       0.107200
     69 H19         -1.0600     2.3230     3.2250 hx         1 FJN       0.107200
     70 H20          1.0910     2.8880     3.1700 hx         1 FJN       0.102200
     71 H21          0.5970     4.5640     2.9030 hx         1 FJN       0.102200
     72 H22          2.1860     6.0480     1.9070 ha         1 FJN       0.156000
     73 H23          4.2950     6.3480     0.6460 h4         1 FJN       0.051100
     74 H24          2.5950     1.8230     1.2280 ha         1 FJN       0.134000
     75 H25         11.4590    -0.7120    -2.0920 ha         1 FJN       0.164000
     76 H26         10.8620     1.7000    -2.2770 ha         1 FJN       0.148000
     77 H27          8.5830     2.4570    -1.8650 ha         1 FJN       0.157000
     78 H28          6.4890    -2.1580    -1.5560 h1         1 FJN       0.055700
     79 H29          7.5990    -1.6430     1.2390 hc         1 FJN       0.046200
     80 H30          5.9970    -1.2180     0.6500 hc         1 FJN       0.046200
     81 H31          5.9370    -3.2930     2.0340 hc         1 FJN       0.038700
     82 H32          5.4020    -3.6040     0.3950 hc         1 FJN       0.038700
     83 H33          8.1800    -4.2070     1.5250 hc         1 FJN       0.057200
     84 H34          6.9560    -5.3900     1.0900 hc         1 FJN       0.057200
     85 H35          8.7360    -5.0930    -0.6930 h1         1 FJN       0.062700
     86 H36          7.0980    -4.7990    -1.2680 h1         1 FJN       0.062700
     87 H37         -0.7160     5.0920     0.8380 hx         1 FJN       0.102700
     88 H38          0.4250     4.2090    -0.2080 hx         1 FJN       0.102700
     89 H39         -1.2790     3.7410    -0.1730 hx         1 FJN       0.102700
     90 H40         -5.6940    -2.6580     0.5560 hn         1 FJN       0.424800
     91 H41          4.2200     1.2430    -0.3690 hn         1 FJN       0.316500
     92 H42          5.7710     0.2640    -1.4360 hn         1 FJN       0.314500
     93 H43          0.1110     2.2880     1.1250 hn         1 FJN       0.436800
     94 H44        -10.2240    -2.2150     1.0860 h1         1 FJN       0.060700
     95 H45         -8.3250    -0.0090     0.2130 hc         1 FJN       0.065700
@<TRIPOS>BOND
     1     1     2 1   
     2     1     6 1   
     3     1    51 1   
     4     1    52 1   
     5     2     3 1   
     6     2    53 1   
     7     2    54 1   
     8     3     4 1   
     9     3    55 1   
    10     3    56 1   
    11     4     5 1   
    12     4    57 1   
    13     4    58 1   
    14     5     6 1   
    15     5    39 1   
    16     5    94 1   
    17     6     7 1   
    18     6    95 1   
    19     7     8 2   
    20     7    40 1   
    21     8     9 ar  
    22     8    13 ar  
    23     9    10 ar  
    24     9    39 2   
    25    10    11 ar  
    26    10    59 1   
    27    11    12 ar  
    28    11    60 1   
    29    12    13 ar  
    30    12    61 1   
    31    13    62 1   
    32    14    15 1   
    33    14    40 1   
    34    14    63 1   
    35    14    64 1   
    36    15    41 1   
    37    15    65 1   
    38    15    66 1   
    39    16    17 2   
    40    16    18 1   
    41    16    43 1   
    42    17    41 1   
    43    17    67 1   
    44    18    48 1   
    45    18    68 1   
    46    18    69 1   
    47    19    20 1   
    48    19    48 1   
    49    19    70 1   
    50    19    71 1   
    51    20    21 ar  
    52    20    24 ar  
    53    21    22 ar  
    54    21    72 1   
    55    22    44 ar  
    56    22    73 1   
    57    23    24 ar  
    58    23    44 ar  
    59    23    45 1   
    60    24    74 1   
    61    25    45 1   
    62    25    46 1   
    63    25    49 2   
    64    26    27 ar  
    65    26    31 ar  
    66    26    46 1   
    67    27    28 ar  
    68    27    33 1   
    69    28    29 ar  
    70    28    32 1   
    71    29    30 ar  
    72    29    75 1   
    73    30    31 ar  
    74    30    76 1   
    75    31    77 1   
    76    32    47 1   
    77    32    50 2   
    78    33    34 1   
    79    33    47 1   
    80    33    78 1   
    81    34    35 1   
    82    34    79 1   
    83    34    80 1   
    84    35    36 1   
    85    35    81 1   
    86    35    82 1   
    87    36    37 1   
    88    36    83 1   
    89    36    84 1   
    90    37    47 1   
    91    37    85 1   
    92    37    86 1   
    93    38    48 1   
    94    38    87 1   
    95    38    88 1   
    96    38    89 1   
    97    40    90 1   
    98    41    42 1   
    99    42    43 2   
   100    45    91 1   
   101    46    92 1   
   102    48    93 1   
@<TRIPOS>SUBSTRUCTURE
     1 FJN         1 TEMP              0 ****  ****    0 ROOT
