@<TRIPOS>MOLECULE
FJN
   95   102     1     0     0
SMALL
No Charge or Current Charge


@<TRIPOS>ATOM
      1 CAA         -6.9870    -1.9250     2.3120 c6         1 FJN      -0.067400
      2 CAB         -7.7810    -1.4960     3.5760 c6         1 FJN      -0.077400
      3 CAC         -9.1870    -2.1480     3.6250 c6         1 FJN      -0.078400
      4 CAD         -9.9760    -1.9040     2.3120 c6         1 FJN      -0.063400
      5 CAE         -9.1410    -2.3700     1.0950 c6         1 FJN       0.123500
      6 CAF         -7.7940    -1.6040     1.0190 c6         1 FJN      -0.062500
      7 CAG         -7.0460    -1.9070    -0.3000 c2         1 FJN       0.185800
      8 CAH         -7.7210    -2.6730    -1.2480 ca         1 FJN      -0.207000
      9 CAI         -9.1330    -2.8280    -1.1950 ca         1 FJN       0.068000
     10 CAJ         -9.8060    -3.5850    -2.1700 ca         1 FJN      -0.101000
     11 CAK         -9.0890    -4.1980    -3.2100 ca         1 FJN      -0.093000
     12 CAL         -7.6940    -4.0610    -3.2690 ca         1 FJN      -0.120000
     13 CAM         -7.0140    -3.3070    -2.2980 ca         1 FJN      -0.094000
     14 CAO         -5.3360    -0.0150     0.0490 c3         1 FJN       0.212800
     15 CAQ         -4.4120     0.8100    -0.8660 c3         1 FJN       0.030600
     16 CAR         -2.5680     3.2880     0.9550 cc         1 FJN       0.093300
     17 CAS         -2.6180     2.0080     0.5010 cd         1 FJN      -0.159000
     18 CAW         -1.4730     3.9430     1.7520 c3         1 FJN       0.101300
     19 CAX          0.9120     4.7940     1.8560 c3         1 FJN       0.149900
     20 CAY          2.2690     4.7680     1.1800 ca         1 FJN      -0.094300
     21 CAZ          2.8540     5.9390     0.6700 ca         1 FJN      -0.176000
     22 CBA          4.1020     5.8630     0.0270 ca         1 FJN       0.403900
     23 CBB          4.2320     3.5880     0.3890 ca         1 FJN       0.527900
     24 CBC          2.9770     3.5660     1.0190 ca         1 FJN      -0.222000
     25 CBE          6.2850     2.1610     0.1110 c          1 FJN       0.668100
     26 CBI          7.7760     0.1280    -0.3710 ca         1 FJN      -0.023000
     27 CBJ          7.7310    -1.2750    -0.4950 ca         1 FJN      -0.122300
     28 CBK          8.8960    -2.0040    -0.6920 ca         1 FJN      -0.136600
     29 CBL         10.1560    -1.3980    -0.7630 ca         1 FJN      -0.042000
     30 CBM         10.2210     0.0020    -0.6390 ca         1 FJN      -0.099000
     31 CBN          9.0430     0.7600    -0.4480 ca         1 FJN      -0.085000
     32 CBO          8.5560    -3.4370    -0.7870 c          1 FJN       0.582600
     33 CBP          6.5050    -2.1920    -0.4570 c5         1 FJN       0.156000
     34 CBQ          5.7660    -2.2030     0.9050 c6         1 FJN      -0.085400
     35 CBR          4.8340    -3.4400     1.0140 c6         1 FJN      -0.073400
     36 CBS          5.6250    -4.7610     0.8030 c6         1 FJN      -0.100400
     37 CBT          6.3950    -4.7620    -0.5420 c6         1 FJN       0.110000
     38 CBX         -0.5060     5.2730    -0.1940 c3         1 FJN       0.077900
     39 NAN         -9.8440    -2.2800    -0.1820 n2         1 FJN      -0.301200
     40 NAP         -5.9190    -1.1650    -0.6760 nu         1 FJN      -0.819200
     41 NAT         -3.8170     1.9590    -0.1720 na         1 FJN       0.147800
     42 NAU         -4.4500     3.1750    -0.1140 nd         1 FJN      -0.147800
     43 NAV         -3.6790     3.9810     0.5740 nc         1 FJN      -0.330000
     44 NBD          4.7830     4.7050    -0.1250 nb         1 FJN      -0.635000
     45 NBF          4.9310     2.3990     0.1560 ns         1 FJN      -0.347900
     46 NBH          6.5550     0.8380    -0.2000 ns         1 FJN      -0.168000
     47 NBV          7.1640    -3.5100    -0.6790 n          1 FJN      -0.414800
     48 NBW         -0.2120     4.2970     0.9560 nx         1 FJN      -0.663000
     49 OBG          7.1370     3.0070     0.3480 o          1 FJN      -0.545100
     50 OBU          9.3290    -4.3760    -0.9170 o          1 FJN      -0.526000
     51 H1          -6.0180    -1.4140     2.3150 hc         1 FJN       0.041200
     52 H2          -6.7650    -3.0000     2.3560 hc         1 FJN       0.041200
     53 H3          -7.2160    -1.7660     4.4790 hc         1 FJN       0.040700
     54 H4          -7.8830    -0.4020     3.5910 hc         1 FJN       0.040700
     55 H5          -9.0830    -3.2290     3.7940 hc         1 FJN       0.048200
     56 H6          -9.7530    -1.7540     4.4800 hc         1 FJN       0.048200
     57 H7         -10.9280    -2.4500     2.3450 hc         1 FJN       0.056700
     58 H8         -10.2260    -0.8380     2.2130 hc         1 FJN       0.056700
     59 H9         -10.8860    -3.7020    -2.1180 ha         1 FJN       0.134000
     60 H10         -9.6130    -4.7840    -3.9620 ha         1 FJN       0.119000
     61 H11         -7.1360    -4.5430    -4.0700 ha         1 FJN       0.115000
     62 H12         -5.9310    -3.2320    -2.3640 ha         1 FJN       0.087000
     63 H13         -4.7520    -0.3630     0.9110 h1         1 FJN       0.072700
     64 H14         -6.1310     0.6460     0.4220 h1         1 FJN       0.072700
     65 H15         -3.6010     0.1730    -1.2390 h1         1 FJN       0.089200
     66 H16         -4.9820     1.1780    -1.7270 h1         1 FJN       0.089200
     67 H17         -1.9340     1.1740     0.5960 h4         1 FJN       0.182000
     68 H18         -1.8610     4.8620     2.1990 hx         1 FJN       0.107200
     69 H19         -1.1890     3.2760     2.5700 hx         1 FJN       0.107200
     70 H20          0.9440     4.1600     2.7460 hx         1 FJN       0.102200
     71 H21          0.6680     5.8070     2.1860 hx         1 FJN       0.102200
     72 H22          2.3530     6.8990     0.7570 ha         1 FJN       0.138000
     73 H23          4.5670     6.7580    -0.3850 h4         1 FJN       0.051100
     74 H24          2.5700     2.6270     1.3820 ha         1 FJN       0.116000
     75 H25         11.0570    -1.9910    -0.9120 ha         1 FJN       0.146000
     76 H26         11.1840     0.5040    -0.6960 ha         1 FJN       0.130000
     77 H27          9.1390     1.8380    -0.3750 ha         1 FJN       0.139000
     78 H28          5.8010    -1.9620    -1.2680 h1         1 FJN       0.055700
     79 H29          6.5000    -2.2270     1.7230 hc         1 FJN       0.046200
     80 H30          5.1830    -1.2810     1.0310 hc         1 FJN       0.046200
     81 H31          4.3440    -3.4520     1.9970 hc         1 FJN       0.038700
     82 H32          4.0320    -3.3660     0.2660 hc         1 FJN       0.038700
     83 H33          6.3400    -4.8910     1.6280 hc         1 FJN       0.057200
     84 H34          4.9440    -5.6210     0.8420 hc         1 FJN       0.057200
     85 H35          7.0620    -5.6350    -0.5930 h1         1 FJN       0.062700
     86 H36          5.6830    -4.8350    -1.3760 h1         1 FJN       0.062700
     87 H37         -0.8650     6.2200     0.2140 hx         1 FJN       0.102700
     88 H38          0.4060     5.4510    -0.7700 hx         1 FJN       0.102700
     89 H39         -1.2720     4.8510    -0.8490 hx         1 FJN       0.102700
     90 H40         -5.5870    -1.3270    -1.6280 hn         1 FJN       0.480000
     91 H41          4.3390     1.5930     0.0080 hn         1 FJN       0.150000
     92 H42          5.7310     0.2700    -0.3380 hn         1 FJN       0.148000
     93 H43          0.1330     3.4100     0.5230 hn         1 FJN       0.492000
     94 H44         -8.9150    -3.4370     1.2460 h1         1 FJN       0.060700
     95 H45         -8.0270    -0.5300     1.0130 hc         1 FJN       0.065700
@<TRIPOS>BOND
     1     1     2 1   
     2     1     6 1   
     3     1    51 1   
     4     1    52 1   
     5     2     3 1   
     6     2    53 1   
     7     2    54 1   
     8     3     4 1   
     9     3    55 1   
    10     3    56 1   
    11     4     5 1   
    12     4    57 1   
    13     4    58 1   
    14     5     6 1   
    15     5    39 1   
    16     5    94 1   
    17     6     7 1   
    18     6    95 1   
    19     7     8 2   
    20     7    40 1   
    21     8     9 ar  
    22     8    13 ar  
    23     9    10 ar  
    24     9    39 2   
    25    10    11 ar  
    26    10    59 1   
    27    11    12 ar  
    28    11    60 1   
    29    12    13 ar  
    30    12    61 1   
    31    13    62 1   
    32    14    15 1   
    33    14    40 1   
    34    14    63 1   
    35    14    64 1   
    36    15    41 1   
    37    15    65 1   
    38    15    66 1   
    39    16    17 2   
    40    16    18 1   
    41    16    43 1   
    42    17    41 1   
    43    17    67 1   
    44    18    48 1   
    45    18    68 1   
    46    18    69 1   
    47    19    20 1   
    48    19    48 1   
    49    19    70 1   
    50    19    71 1   
    51    20    21 ar  
    52    20    24 ar  
    53    21    22 ar  
    54    21    72 1   
    55    22    44 ar  
    56    22    73 1   
    57    23    24 ar  
    58    23    44 ar  
    59    23    45 1   
    60    24    74 1   
    61    25    45 1   
    62    25    46 1   
    63    25    49 2   
    64    26    27 ar  
    65    26    31 ar  
    66    26    46 1   
    67    27    28 ar  
    68    27    33 1   
    69    28    29 ar  
    70    28    32 1   
    71    29    30 ar  
    72    29    75 1   
    73    30    31 ar  
    74    30    76 1   
    75    31    77 1   
    76    32    47 1   
    77    32    50 2   
    78    33    34 1   
    79    33    47 1   
    80    33    78 1   
    81    34    35 1   
    82    34    79 1   
    83    34    80 1   
    84    35    36 1   
    85    35    81 1   
    86    35    82 1   
    87    36    37 1   
    88    36    83 1   
    89    36    84 1   
    90    37    47 1   
    91    37    85 1   
    92    37    86 1   
    93    38    48 1   
    94    38    87 1   
    95    38    88 1   
    96    38    89 1   
    97    40    90 1   
    98    41    42 1   
    99    42    43 2   
   100    45    91 1   
   101    46    92 1   
   102    48    93 1   
@<TRIPOS>SUBSTRUCTURE
     1 FJN         1 TEMP              0 ****  ****    0 ROOT
