@<TRIPOS>MOLECULE
FJO
   15    14     1     0     0
SMALL
No Charge or Current Charge


@<TRIPOS>ATOM
      1 C1         -17.5330    19.6800    38.4460 c3         1 FJO      -0.124400
      2 C2         -18.2500    18.7940    37.4040 c3         1 FJO       0.170600
      3 O3         -17.8670    17.4270    37.5980 oh         1 FJO      -0.669000
      4 C          -17.8980    21.1780    38.3740 c3         1 FJO       0.612000
      5 O2         -17.1490    21.9190    39.2760 oh         1 FJO      -0.677667
      6 O1         -19.2390    21.4010    38.6560 oh         1 FJO      -0.677667
      7 O          -17.6470    21.6950    37.1200 oh         1 FJO      -0.677667
      8 H1         -17.7540    19.3000    39.4510 hc         1 FJO       0.065700
      9 H2         -16.4510    19.5710    38.2990 hc         1 FJO       0.065700
     10 H3         -17.9790    19.1240    36.3910 h1         1 FJO       0.033200
     11 H4         -19.3380    18.9000    37.5110 h1         1 FJO       0.033200
     12 H5         -18.3230    16.8990    36.9050 ho         1 FJO       0.447000
     13 H6         -16.5470    21.2750    39.6990 ho         1 FJO       0.466333
     14 H7         -19.5770    20.5480    38.9890 ho         1 FJO       0.466333
     15 H8         -17.9130    22.6280    37.2320 ho         1 FJO       0.466333
@<TRIPOS>BOND
     1     1     2 1   
     2     1     4 1   
     3     1     8 1   
     4     1     9 1   
     5     2     3 1   
     6     2    10 1   
     7     2    11 1   
     8     3    12 1   
     9     4     5 1   
    10     4     6 1   
    11     4     7 1   
    12     5    13 1   
    13     6    14 1   
    14     7    15 1   
@<TRIPOS>SUBSTRUCTURE
     1 FJO         1 TEMP              0 ****  ****    0 ROOT
