@<TRIPOS>MOLECULE
FJO
   15    14     1     0     0
SMALL
bcc


@<TRIPOS>ATOM
      1 C1         -17.4790    19.6370    38.3570 c3         1 FJO      -0.124400
      2 C2         -18.2670    18.7810    37.3810 c3         1 FJO       0.147400
      3 O3         -17.8100    17.4500    37.5110 oh         1 FJO      -0.606800
      4 C          -17.8510    21.1190    38.3310 c3         1 FJO       0.542400
      5 O2         -17.0700    21.8480    39.2340 oh         1 FJO      -0.615467
      6 O1         -19.2140    21.3220    38.5790 oh         1 FJO      -0.615467
      7 O          -17.5920    21.6160    37.0770 oh         1 FJO      -0.615467
      8 H1         -17.6370    19.2580    39.3730 hc         1 FJO       0.065700
      9 H2         -16.4100    19.5420    38.1480 hc         1 FJO       0.065700
     10 H3         -18.1210    19.1510    36.3600 h1         1 FJO       0.033200
     11 H4         -19.3390    18.8560    37.6000 h1         1 FJO       0.033200
     12 H5         -18.2790    16.9110    36.8680 ho         1 FJO       0.408000
     13 H6         -17.0770    21.4240    40.0990 ho         1 FJO       0.427333
     14 H7         -19.4740    20.8780    39.3940 ho         1 FJO       0.427333
     15 H8         -17.8440    22.5480    37.0370 ho         1 FJO       0.427333
@<TRIPOS>BOND
     1     1     2 1   
     2     1     4 1   
     3     1     8 1   
     4     1     9 1   
     5     2     3 1   
     6     2    10 1   
     7     2    11 1   
     8     3    12 1   
     9     4     5 1   
    10     4     6 1   
    11     4     7 1   
    12     5    13 1   
    13     6    14 1   
    14     7    15 1   
@<TRIPOS>SUBSTRUCTURE
     1 FJO         1 TEMP              0 ****  ****    0 ROOT
