@<TRIPOS>MOLECULE
FJQ
   36    38     1     0     0
SMALL
bcc


@<TRIPOS>ATOM
      1 C01          3.2690    -1.8150     0.0460 ca         1 FJQ      -0.122000
      2 C02          2.0740    -1.1720     0.3180 ca         1 FJQ      -0.090000
      3 C03          1.8250     0.1290    -0.1090 ca         1 FJQ      -0.123300
      4 C04          2.8350     0.7720    -0.8170 ca         1 FJQ       0.040400
      5 C05          4.0430     0.1580    -1.1070 ca         1 FJQ      -0.118000
      6 C06          4.2450    -1.1400    -0.6690 ca         1 FJQ       0.039400
      7 C09          0.5110     0.8060     0.2220 c3         1 FJQ       0.178400
      8 C10          0.6600     1.6440     1.4910 c3         1 FJQ       0.048300
      9 C12         -1.6930     2.0400     2.2970 cc         1 FJQ      -0.244600
     10 C13         -2.5060     3.1360     2.2720 cd         1 FJQ       0.281200
     11 C15         -0.6640     3.7490     1.4060 cc         1 FJQ       0.380400
     12 C18         -2.1810    -1.5810    -0.3000 cc         1 FJQ      -0.104300
     13 C19         -2.0430    -2.9340    -0.2170 cd         1 FJQ       0.034300
     14 C21         -4.2720    -2.2140     0.5010 cd         1 FJQ      -0.119100
     15 C22         -3.4800    -1.1770     0.1270 cc         1 FJQ      -0.123000
     16 N11         -0.5110     2.4490     1.7440 na         1 FJQ      -0.189900
     17 N14         -1.8520     4.1990     1.7120 nd         1 FJQ      -0.670000
     18 O16         -0.5100    -0.1210     0.4580 os         1 FJQ      -0.402600
     19 S20         -3.4610    -3.7190     0.3520 ss         1 FJQ      -0.039800
     20 CL7          5.7450    -1.9250    -1.0240 cl         1 FJQ      -0.094400
     21 CL8          2.6110     2.4030    -1.3640 cl         1 FJQ      -0.105400
     22 CL2         -0.6520    -3.8500    -0.6000 cl         1 FJQ      -0.052400
     23 H1           3.4360    -2.8260     0.3880 ha         1 FJQ       0.155000
     24 H2           1.3120    -1.7020     0.8740 ha         1 FJQ       0.159000
     25 H3           4.8070     0.6830    -1.6630 ha         1 FJQ       0.165000
     26 H4           0.2360     1.4780    -0.6030 h1         1 FJQ       0.065700
     27 H5           0.8420     0.9920     2.3460 h1         1 FJQ       0.075200
     28 H6           1.5180     2.3080     1.3990 h1         1 FJQ       0.075200
     29 H7          -1.8480     1.0360     2.6530 h4         1 FJQ       0.182000
     30 H8          -3.5210     3.2140     2.6300 h4         1 FJQ       0.036100
     31 H9           0.1330     4.3160     0.9470 h5         1 FJQ       0.052100
     32 H10         -0.3760    -1.1360    -1.3540 h1         1 FJQ       0.044200
     33 H11         -1.5440     0.1860    -1.3060 h1         1 FJQ       0.044200
     34 H12         -5.2920    -2.1840     0.8530 h4         1 FJQ       0.174000
     35 H13         -3.8010    -0.1450     0.1440 ha         1 FJQ       0.163000
     36 C17         -1.1110    -0.6310    -0.7180 c3         1 FJQ       0.200700
@<TRIPOS>BOND
     1     1     2 ar  
     2     1     6 ar  
     3     1    23 1   
     4     2     3 ar  
     5     2    24 1   
     6     3     4 ar  
     7     3     7 1   
     8     4     5 ar  
     9     4    21 1   
    10     5     6 ar  
    11     5    25 1   
    12     6    20 1   
    13     7     8 1   
    14     7    18 1   
    15     7    26 1   
    16     8    16 1   
    17     8    27 1   
    18     8    28 1   
    19     9    10 2   
    20     9    16 1   
    21     9    29 1   
    22    10    17 1   
    23    10    30 1   
    24    11    16 1   
    25    11    17 2   
    26    11    31 1   
    27    12    13 2   
    28    12    15 1   
    29    12    36 1   
    30    13    19 1   
    31    13    22 1   
    32    14    15 2   
    33    14    19 1   
    34    14    34 1   
    35    15    35 1   
    36    18    36 1   
    37    32    36 1   
    38    33    36 1   
@<TRIPOS>SUBSTRUCTURE
     1 FJQ         1 TEMP              0 ****  ****    0 ROOT
