@<TRIPOS>MOLECULE
FJQ
   36    38     1     0     0
SMALL
No Charge or Current Charge


@<TRIPOS>ATOM
      1 C01          3.2550    -1.7540     0.2390 ca         1 FJQ      -0.104000
      2 C02          2.0850    -1.0440     0.5560 ca         1 FJQ      -0.072000
      3 C03          1.7750     0.1660    -0.1070 ca         1 FJQ      -0.123300
      4 C04          2.6740     0.6580    -1.0830 ca         1 FJQ       0.132000
      5 C05          3.8430    -0.0560    -1.3950 ca         1 FJQ      -0.100000
      6 C06          4.1310    -1.2600    -0.7380 ca         1 FJQ       0.131000
      7 C09          0.4890     0.9200     0.2550 c3         1 FJQ       0.201600
      8 C10          0.6470     1.6950     1.5820 c3         1 FJQ       0.077600
      9 C12         -1.6160     2.1920     2.6430 cc         1 FJQ      -0.212000
     10 C13         -2.4150     3.3050     2.6730 cd         1 FJQ       0.215900
     11 C15         -0.6800     3.8660     1.5200 cc         1 FJQ       0.380400
     12 C18         -2.0900    -1.6690    -0.4110 cc         1 FJQ      -0.104300
     13 C19         -1.8780    -2.9970    -0.1280 cd         1 FJQ      -0.019000
     14 C21         -4.2910    -2.3500     0.0550 cd         1 FJQ      -0.246000
     15 C22         -3.4640    -1.3160    -0.3010 cc         1 FJQ      -0.105000
     16 N11         -0.5080     2.5530     1.9060 na         1 FJQ      -0.168500
     17 N14         -1.8300     4.3430     1.9760 nd         1 FJQ      -0.670000
     18 O16         -0.5890    -0.0230     0.4210 os         1 FJQ      -0.449000
     19 S20         -3.3770    -3.8510     0.2800 ss         1 FJQ       0.250000
     20 Cl7          5.5950    -2.1490    -1.1350 cl         1 FJQ      -0.186000
     21 Cl8          2.3780     2.1770    -1.9300 cl         1 FJQ      -0.197000
     22 Cl2         -0.3370    -3.7990    -0.1450 cl         1 FJQ      -0.144000
     23 H1           3.4810    -2.6870     0.7490 ha         1 FJQ       0.137000
     24 H2           1.4140    -1.4390     1.3170 ha         1 FJQ       0.141000
     25 H3           4.5280     0.3280    -2.1460 ha         1 FJQ       0.147000
     26 H4           0.2280     1.6400    -0.5310 h1         1 FJQ       0.065700
     27 H5           0.8040     0.9840     2.4010 h1         1 FJQ       0.075200
     28 H6           1.5410     2.3280     1.5170 h1         1 FJQ       0.075200
     29 H7          -1.7560     1.2070     3.0700 h4         1 FJQ       0.164000
     30 H8          -3.3780     3.4160     3.1570 h4         1 FJQ       0.036100
     31 H9           0.0510     4.3990     0.9230 h5         1 FJQ       0.052100
     32 H10         -0.2220    -1.1540    -1.3150 h1         1 FJQ       0.044200
     33 H11         -1.4820     0.0890    -1.4730 h1         1 FJQ       0.044200
     34 H12         -5.3640    -2.3360     0.2030 h4         1 FJQ       0.156000
     35 H13         -3.8140    -0.3040    -0.4850 ha         1 FJQ       0.145000
     36 C17         -1.0460    -0.6520    -0.7900 c3         1 FJQ       0.223900
@<TRIPOS>BOND
     1     1     2 ar  
     2     1     6 ar  
     3     1    23 1   
     4     2     3 ar  
     5     2    24 1   
     6     3     4 ar  
     7     3     7 1   
     8     4     5 ar  
     9     4    21 1   
    10     5     6 ar  
    11     5    25 1   
    12     6    20 1   
    13     7     8 1   
    14     7    18 1   
    15     7    26 1   
    16     8    16 1   
    17     8    27 1   
    18     8    28 1   
    19     9    10 2   
    20     9    16 1   
    21     9    29 1   
    22    10    17 1   
    23    10    30 1   
    24    11    16 1   
    25    11    17 2   
    26    11    31 1   
    27    12    13 2   
    28    12    15 1   
    29    12    36 1   
    30    13    19 1   
    31    13    22 1   
    32    14    15 2   
    33    14    19 1   
    34    14    34 1   
    35    15    35 1   
    36    18    36 1   
    37    32    36 1   
    38    33    36 1   
@<TRIPOS>SUBSTRUCTURE
     1 FJQ         1 TEMP              0 ****  ****    0 ROOT
