@<TRIPOS>MOLECULE
FJR
   36    38     1     0     0
SMALL
bcc


@<TRIPOS>ATOM
      1 C00        -25.0030     1.6090   -37.8890 ca         1 FJR      -0.100000
      2 C01        -24.6230     2.8200   -38.4310 ca         1 FJR      -0.117000
      3 C02        -23.7270     2.8720   -39.4960 ca         1 FJR      -0.124000
      4 C03        -23.1930     1.7110   -40.0390 ca         1 FJR       0.132100
      5 C04        -23.9490    -8.0490   -38.7280 ca         1 FJR      -0.104500
      6 C05        -24.6890    -8.5240   -37.6450 ca         1 FJR      -0.104300
      7 C06        -25.2800    -7.5800   -36.8140 ca         1 FJR      -0.104500
      8 C07        -25.1530    -6.2130   -37.0320 ca         1 FJR      -0.164000
      9 C08        -23.8110    -6.6940   -38.9620 ca         1 FJR      -0.164000
     10 C09        -24.4110    -5.7530   -38.1190 ca         1 FJR       0.075600
     11 C14        -24.2900    -2.0000   -38.4710 cc         1 FJR      -0.295800
     12 C15        -24.8090    -0.8770   -37.9330 cd         1 FJR       0.019800
     13 C16        -24.4780     0.4290   -38.4210 ca         1 FJR      -0.117800
     14 C17        -23.5850     0.4930   -39.4830 ca         1 FJR       0.073100
     15 C19        -23.3560    -1.8850   -39.5930 cc         1 FJR       0.709900
     16 N01        -24.2020    -4.4110   -38.4450 ns         1 FJR      -0.466100
     17 N02        -22.8230    -2.8800   -40.1680 n2         1 FJR      -0.837100
     18 O01        -23.0600    -0.6320   -40.0240 os         1 FJR      -0.394700
     19 O02        -22.3320     1.8010   -41.0650 oh         1 FJR      -0.487100
     20 O04        -25.4910    -3.3170   -36.9220 o          1 FJR      -0.606100
     21 H1         -25.7000     1.5600   -37.0630 ha         1 FJR       0.147000
     22 H2         -25.0200     3.7440   -38.0320 ha         1 FJR       0.145000
     23 H3         -23.4370     3.8260   -39.9170 ha         1 FJR       0.156000
     24 H4         -23.4700    -8.7480   -39.4030 ha         1 FJR       0.127500
     25 H5         -25.8600    -7.9130   -35.9610 ha         1 FJR       0.127500
     26 H6         -25.6330    -5.5270   -36.3540 ha         1 FJR       0.147000
     27 H7         -23.2340    -6.3580   -39.8160 ha         1 FJR       0.147000
     28 H8         -25.5030    -0.9530   -37.1050 ha         1 FJR       0.174000
     29 H9         -23.8710   -10.4420   -37.1070 hc         1 FJR       0.039367
     30 H10        -25.5330   -10.1950   -36.5830 hc         1 FJR       0.039367
     31 H11        -25.1760   -10.5250   -38.2770 hc         1 FJR       0.039367
     32 H12        -23.5760    -4.2230   -39.2360 hn         1 FJR       0.369500
     33 H13        -22.2050    -2.6300   -40.9320 hn         1 FJR       0.418400
     34 H15        -22.0370     0.9300   -41.3580 ho         1 FJR       0.444000
     35 C13        -24.7180    -3.3100   -37.8690 c          1 FJR       0.694300
     36 C20        -24.8270    -9.9960   -37.3890 c3         1 FJR      -0.040800
@<TRIPOS>BOND
     1     1     2 ar  
     2     1    13 ar  
     3     1    21 1   
     4     2     3 ar  
     5     2    22 1   
     6     3     4 ar  
     7     3    23 1   
     8     4    14 ar  
     9     4    19 1   
    10     5     6 ar  
    11     5     9 ar  
    12     5    24 1   
    13     6     7 ar  
    14     6    36 1   
    15     7     8 ar  
    16     7    25 1   
    17     8    10 ar  
    18     8    26 1   
    19     9    10 ar  
    20     9    27 1   
    21    10    16 1   
    22    11    12 2   
    23    11    15 1   
    24    11    35 1   
    25    12    13 1   
    26    12    28 1   
    27    13    14 ar  
    28    14    18 1   
    29    15    17 2   
    30    15    18 1   
    31    16    32 1   
    32    16    35 1   
    33    17    33 1   
    34    19    34 1   
    35    20    35 2   
    36    29    36 1   
    37    30    36 1   
    38    31    36 1   
@<TRIPOS>SUBSTRUCTURE
     1 FJR         1 TEMP              0 ****  ****    0 ROOT
