@<TRIPOS>MOLECULE
FJR
   36    38     1     0     0
SMALL
No Charge or Current Charge


@<TRIPOS>ATOM
      1 C00        -24.9550     1.6740   -37.9000 ca         1 FJR      -0.082000
      2 C01        -24.5670     2.9130   -38.4370 ca         1 FJR      -0.099000
      3 C02        -23.6750     2.9560   -39.5210 ca         1 FJR      -0.106000
      4 C03        -23.1750     1.7620   -40.0650 ca         1 FJR       0.132100
      5 C04        -23.9510    -8.1220   -38.7560 ca         1 FJR      -0.086500
      6 C05        -24.6680    -8.5960   -37.6430 ca         1 FJR      -0.104300
      7 C06        -25.2600    -7.6730   -36.7630 ca         1 FJR      -0.086500
      8 C07        -25.1450    -6.2910   -36.9950 ca         1 FJR      -0.146000
      9 C08        -23.8350    -6.7410   -38.9870 ca         1 FJR      -0.146000
     10 C09        -24.4320    -5.8100   -38.1160 ca         1 FJR      -0.017000
     11 C14        -24.3380    -1.9670   -38.4580 cc         1 FJR      -0.295800
     12 C15        -24.8400    -0.8050   -37.9100 cd         1 FJR      -0.030200
     13 C16        -24.4520     0.4780   -38.4480 ca         1 FJR      -0.117800
     14 C17        -23.5620     0.5130   -39.5310 ca         1 FJR       0.073100
     15 C19        -23.4240    -1.8410   -39.5750 cc         1 FJR       0.709900
     16 N01        -24.2640    -4.4300   -38.4190 ns         1 FJR      -0.140000
     17 N02        -22.8840    -2.8360   -40.1800 n2         1 FJR      -0.837100
     18 O01        -23.0320    -0.6310   -40.1140 os         1 FJR      -0.394700
     19 O02        -22.3080     1.8110   -41.1200 oh         1 FJR      -0.526100
     20 O04        -25.5580    -3.2920   -36.9140 o          1 FJR      -0.606100
     21 H1         -25.6460     1.6470   -37.0600 ha         1 FJR       0.129000
     22 H2         -24.9560     3.8370   -38.0130 ha         1 FJR       0.127000
     23 H3         -23.3710     3.9130   -39.9400 ha         1 FJR       0.138000
     24 H4         -23.4820    -8.8230   -39.4430 ha         1 FJR       0.109500
     25 H5         -25.8110    -8.0270   -35.8940 ha         1 FJR       0.109500
     26 H6         -25.6120    -5.6150   -36.2860 ha         1 FJR       0.129000
     27 H7         -23.2760    -6.3930   -39.8540 ha         1 FJR       0.129000
     28 H8         -25.5310    -0.8370   -37.0690 ha         1 FJR       0.224000
     29 H9         -23.9670   -10.4490   -36.7600 hc         1 FJR       0.039367
     30 H10        -25.7310   -10.3330   -36.8780 hc         1 FJR       0.039367
     31 H11        -24.7700   -10.6600   -38.3250 hc         1 FJR       0.039367
     32 H12        -23.6440    -4.2600   -39.2010 hn         1 FJR       0.203000
     33 H13        -22.2920    -2.4360   -40.9200 hn         1 FJR       0.418400
     34 H15        -22.0840     0.8810   -41.3440 ho         1 FJR       0.483000
     35 C13        -24.7760    -3.2660   -37.8580 c          1 FJR       0.627300
     36 C20        -24.7910   -10.0910   -37.3880 c3         1 FJR      -0.040800
@<TRIPOS>BOND
     1     1     2 ar  
     2     1    13 ar  
     3     1    21 1   
     4     2     3 ar  
     5     2    22 1   
     6     3     4 ar  
     7     3    23 1   
     8     4    14 ar  
     9     4    19 1   
    10     5     6 ar  
    11     5     9 ar  
    12     5    24 1   
    13     6     7 ar  
    14     6    36 1   
    15     7     8 ar  
    16     7    25 1   
    17     8    10 ar  
    18     8    26 1   
    19     9    10 ar  
    20     9    27 1   
    21    10    16 1   
    22    11    12 2   
    23    11    15 1   
    24    11    35 1   
    25    12    13 1   
    26    12    28 1   
    27    13    14 ar  
    28    14    18 1   
    29    15    17 2   
    30    15    18 1   
    31    16    32 1   
    32    16    35 1   
    33    17    33 1   
    34    19    34 1   
    35    20    35 2   
    36    29    36 1   
    37    30    36 1   
    38    31    36 1   
@<TRIPOS>SUBSTRUCTURE
     1 FJR         1 TEMP              0 ****  ****    0 ROOT
