@<TRIPOS>MOLECULE
FJS
   60    65     1     0     0
SMALL
abcg2


@<TRIPOS>ATOM
      1 C10         -0.1250     2.2820    -1.8290 ca         1 FJS      -0.178000
      2 C13         -0.9420     1.5840     0.7200 ca         1 FJS      -0.060500
      3 C15          2.4170    -1.8540     0.2860 cp         1 FJS      -0.128000
      4 C17          1.7380    -3.9710    -0.6790 ca         1 FJS      -0.275000
      5 C21          3.4550    -0.9510     0.8290 cp         1 FJS      -0.047000
      6 C24         -5.5660    -0.0980     0.0700 c          1 FJS       0.644100
      7 C28         -7.6000     1.2550     0.8290 cx         1 FJS      -0.089900
      8 N01         -2.2960    -2.7810     0.0460 nc         1 FJS      -0.442300
      9 O02         -3.4780    -2.0900     0.0340 os         1 FJS      -0.036700
     10 C03         -3.2110    -0.7960    -0.0580 cc         1 FJS       0.337900
     11 C04         -1.8650    -0.5780    -0.1240 cd         1 FJS      -0.243000
     12 C05         -1.3360    -1.8940    -0.0510 cd         1 FJS       0.407500
     13 C06          0.0550    -2.3320    -0.1050 ca         1 FJS      -0.293500
     14 C07         -1.1880     0.7110    -0.3330 ca         1 FJS      -0.056000
     15 C09         -0.7730     1.0840    -1.6130 ca         1 FJS      -0.060500
     16 C11          0.1370     3.1430    -0.7600 ca         1 FJS       0.151100
     17 C12         -0.2830     2.7910     0.5200 ca         1 FJS      -0.178000
     18 C14          1.0810    -1.4960     0.3300 ca         1 FJS       0.010000
     19 C16          2.7400    -3.1090    -0.2520 ca         1 FJS       0.212100
     20 C18          0.3990    -3.6090    -0.5870 ca         1 FJS       0.241100
     21 O19         -0.5050    -4.5100    -0.9880 oh         1 FJS      -0.536100
     22 O20          4.0360    -3.4380    -0.3310 oh         1 FJS      -0.517100
     23 O22          0.7950     4.2750    -1.0580 os         1 FJS      -0.341100
     24 C23          1.2060     5.1190    -0.0010 c3         1 FJS       0.146900
     25 C25         -6.3810     1.1310    -0.0520 cx         1 FJS      -0.257700
     26 O26         -6.0260    -1.1950     0.3030 o          1 FJS      -0.533100
     27 C27         -7.7730     0.9940    -0.6190 cx         1 FJS      -0.089900
     28 C29          5.3540     0.6180     2.0320 ca         1 FJS       0.358900
     29 N30          5.1340    -0.5730     2.5170 nb         1 FJS      -0.663000
     30 C31          4.1940    -1.3350     1.9210 ca         1 FJS       0.341900
     31 C32          4.6740     1.1460     0.9120 ca         1 FJS      -0.103000
     32 C33          3.6980     0.3380     0.2780 ca         1 FJS       0.002000
     33 C34          3.0400     0.8490    -0.8640 ca         1 FJS      -0.100000
     34 C35          3.3400     2.0990    -1.3320 ca         1 FJS      -0.093000
     35 C36          4.2970     2.9080    -0.6850 ca         1 FJS      -0.116000
     36 C37          4.9540     2.4390     0.4180 ca         1 FJS      -0.088000
     37 H1           0.1930     2.5600    -2.8270 ha         1 FJS       0.125000
     38 H2          -1.2530     1.3150     1.7220 ha         1 FJS       0.120500
     39 H3           1.9920    -4.9480    -1.0750 ha         1 FJS       0.134000
     40 H5          -7.8170     2.2440     1.2080 hc         1 FJS       0.085950
     41 H7          -0.9580     0.4220    -2.4500 ha         1 FJS       0.120500
     42 H8          -0.1060     3.4340     1.3700 ha         1 FJS       0.125000
     43 H9           0.8260    -0.5290     0.7430 ha         1 FJS       0.131000
     44 H10         -1.4070    -4.2000    -0.7810 ho         1 FJS       0.508000
     45 H11          4.1400    -4.3130    -0.7250 ho         1 FJS       0.471000
     46 H12          1.8550     4.5960     0.7060 h1         1 FJS       0.043367
     47 H13          1.7690     5.9310    -0.4550 h1         1 FJS       0.043367
     48 H14          0.3560     5.5400     0.5410 h1         1 FJS       0.043367
     49 H15         -5.8510     2.0480    -0.2800 hc         1 FJS       0.090700
     50 H16         -8.0840     0.0060    -0.9280 hc         1 FJS       0.085950
     51 H17         -8.1110     1.8000    -1.2550 hc         1 FJS       0.085950
     52 H18          6.1070     1.2260     2.5240 h4         1 FJS       0.016100
     53 H19          4.0280    -2.3100     2.3660 h4         1 FJS       0.023100
     54 H20          2.2990     0.2460    -1.3700 ha         1 FJS       0.126000
     55 H21          2.8360     2.4760    -2.2120 ha         1 FJS       0.118000
     56 H22          4.5100     3.8970    -1.0690 ha         1 FJS       0.113000
     57 H23          5.6970     3.0470     0.9200 ha         1 FJS       0.114000
     58 N08         -4.2190     0.1210    -0.1070 ns         1 FJS      -0.483400
     59 H4          -7.7930     0.4480     1.5240 hc         1 FJS       0.085950
     60 H6          -3.9100     1.0700    -0.2660 hn         1 FJS       0.345500
@<TRIPOS>BOND
     1     1    15 ar  
     2     1    16 ar  
     3     1    37 1   
     4     2    14 ar  
     5     2    17 ar  
     6     2    38 1   
     7     3     5 1   
     8     3    18 ar  
     9     3    19 ar  
    10     4    19 ar  
    11     4    20 ar  
    12     4    39 1   
    13     5    30 ar  
    14     5    32 ar  
    15     6    25 1   
    16     6    26 2   
    17     6    58 1   
    18     7    25 1   
    19     7    27 1   
    20     7    40 1   
    21     7    59 1   
    22     8     9 1   
    23     8    12 2   
    24     9    10 1   
    25    10    11 2   
    26    10    58 1   
    27    11    12 1   
    28    11    14 1   
    29    12    13 1   
    30    13    18 ar  
    31    13    20 ar  
    32    14    15 ar  
    33    15    41 1   
    34    16    17 ar  
    35    16    23 1   
    36    17    42 1   
    37    18    43 1   
    38    19    22 1   
    39    20    21 1   
    40    21    44 1   
    41    22    45 1   
    42    23    24 1   
    43    24    46 1   
    44    24    47 1   
    45    24    48 1   
    46    25    27 1   
    47    25    49 1   
    48    27    50 1   
    49    27    51 1   
    50    28    29 ar  
    51    28    31 ar  
    52    28    52 1   
    53    29    30 ar  
    54    30    53 1   
    55    31    32 ar  
    56    31    36 ar  
    57    32    33 ar  
    58    33    34 ar  
    59    33    54 1   
    60    34    35 ar  
    61    34    55 1   
    62    35    36 ar  
    63    35    56 1   
    64    36    57 1   
    65    58    60 1   
@<TRIPOS>SUBSTRUCTURE
     1 FJS         1 TEMP              0 ****  ****    0 ROOT
