@<TRIPOS>MOLECULE
FJS
   60    65     1     0     0
SMALL
No Charge or Current Charge


@<TRIPOS>ATOM
      1 C10          0.1450     1.8360    -1.9430 ca         1 FJS      -0.178000
      2 C13         -1.6170     1.8120     0.2350 ca         1 FJS      -0.060500
      3 C15          2.4680    -1.9220     0.0940 cp         1 FJS      -0.128000
      4 C17          1.7180    -3.8300    -1.2360 ca         1 FJS      -0.275000
      5 C21          3.5580    -1.1510     0.7720 cp         1 FJS      -0.047000
      6 C24         -5.4190    -0.0610     1.1490 c          1 FJS       0.644100
      7 C28         -7.6530     1.1310     0.5420 cx         1 FJS      -0.089900
      8 N01         -2.1550    -2.9100     0.4680 nc         1 FJS      -0.442300
      9 O02         -3.3630    -2.2060     0.7930 os         1 FJS      -0.036700
     10 C03         -3.1750    -0.8730     0.5260 cc         1 FJS       0.337900
     11 C04         -1.9320    -0.6810    -0.0090 cd         1 FJS      -0.243000
     12 C05         -1.3300    -1.9670     0.0460 cd         1 FJS       0.407500
     13 C06          0.0640    -2.3220    -0.2700 ca         1 FJS      -0.293500
     14 C07         -1.3100     0.5980    -0.4170 ca         1 FJS      -0.056000
     15 C09         -0.4150     0.6240    -1.5050 ca         1 FJS      -0.060500
     16 C11         -0.1570     3.0370    -1.2890 ca         1 FJS       0.151100
     17 C12         -1.0400     3.0230    -0.1900 ca         1 FJS      -0.178000
     18 C14          1.1130    -1.5600     0.2860 ca         1 FJS       0.010000
     19 C16          2.7540    -3.0680    -0.6840 ca         1 FJS       0.212100
     20 C18          0.3840    -3.4760    -1.0100 ca         1 FJS       0.241100
     21 O19         -0.5930    -4.2730    -1.5150 oh         1 FJS      -0.536100
     22 O20          4.0420    -3.4610    -0.8980 oh         1 FJS      -0.517100
     23 O22          0.4360     4.1930    -1.7550 os         1 FJS      -0.341100
     24 C23          0.2200     5.4710    -1.1310 c3         1 FJS       0.146900
     25 C25         -6.2410     1.2010     1.0910 cx         1 FJS      -0.257700
     26 O26         -5.8450    -1.1030     1.6220 o          1 FJS      -0.533100
     27 C27         -6.5660     1.8030    -0.2630 cx         1 FJS      -0.089900
     28 C29          5.5710     0.1310     2.1970 ca         1 FJS       0.358900
     29 N30          5.3230    -1.1680     2.4760 nb         1 FJS      -0.663000
     30 C31          4.3420    -1.7810     1.7730 ca         1 FJS       0.341900
     31 C32          4.8680     0.8560     1.2150 ca         1 FJS      -0.103000
     32 C33          3.8480     0.2100     0.4820 ca         1 FJS       0.002000
     33 C34          3.1650     0.9270    -0.5220 ca         1 FJS      -0.100000
     34 C35          3.4820     2.2730    -0.7750 ca         1 FJS      -0.093000
     35 C36          4.4840     2.9140    -0.0300 ca         1 FJS      -0.116000
     36 C37          5.1810     2.2060     0.9630 ca         1 FJS      -0.088000
     37 H1           0.8190     1.8420    -2.7960 ha         1 FJS       0.125000
     38 H2          -2.2700     1.8260     1.1040 ha         1 FJS       0.120500
     39 H3           1.9380    -4.7190    -1.8200 ha         1 FJS       0.134000
     40 H5          -8.4100     1.7640     1.0000 hc         1 FJS       0.085950
     41 H7          -0.1780    -0.2920    -2.0410 ha         1 FJS       0.120500
     42 H8          -1.2890     3.9340     0.3460 ha         1 FJS       0.125000
     43 H9           0.8820    -0.6960     0.9070 ha         1 FJS       0.131000
     44 H10         -1.4200    -4.0400    -1.0340 ho         1 FJS       0.508000
     45 H11          4.0260    -4.2600    -1.4650 ho         1 FJS       0.471000
     46 H12          0.5510     5.4540    -0.0850 h1         1 FJS       0.043367
     47 H13          0.7880     6.2500    -1.6540 h1         1 FJS       0.043367
     48 H14         -0.8420     5.7460    -1.1610 h1         1 FJS       0.043367
     49 H15         -6.0710     1.8930     1.9120 hc         1 FJS       0.090700
     50 H16         -6.2160     1.2920    -1.1580 hc         1 FJS       0.085950
     51 H17         -6.5950     2.8870    -0.3450 hc         1 FJS       0.085950
     52 H18          6.3640     0.6030     2.7760 h4         1 FJS       0.016100
     53 H19          4.1560    -2.8230     2.0310 h4         1 FJS       0.023100
     54 H20          2.4000     0.4430    -1.1200 ha         1 FJS       0.126000
     55 H21          2.9520     2.8200    -1.5520 ha         1 FJS       0.118000
     56 H22          4.7270     3.9560    -0.2270 ha         1 FJS       0.113000
     57 H23          5.9640     2.7040     1.5310 ha         1 FJS       0.114000
     58 N08         -4.1590     0.0870     0.6370 ns         1 FJS      -0.483400
     59 H4          -8.0230     0.1700     0.1880 hc         1 FJS       0.085950
     60 H6          -3.9550     1.0110     0.2850 hn         1 FJS       0.345500
@<TRIPOS>BOND
     1     1    15 ar  
     2     1    16 ar  
     3     1    37 1   
     4     2    14 ar  
     5     2    17 ar  
     6     2    38 1   
     7     3     5 1   
     8     3    18 ar  
     9     3    19 ar  
    10     4    19 ar  
    11     4    20 ar  
    12     4    39 1   
    13     5    30 ar  
    14     5    32 ar  
    15     6    25 1   
    16     6    26 2   
    17     6    58 1   
    18     7    25 1   
    19     7    27 1   
    20     7    40 1   
    21     7    59 1   
    22     8     9 1   
    23     8    12 2   
    24     9    10 1   
    25    10    11 2   
    26    10    58 1   
    27    11    12 1   
    28    11    14 1   
    29    12    13 1   
    30    13    18 ar  
    31    13    20 ar  
    32    14    15 ar  
    33    15    41 1   
    34    16    17 ar  
    35    16    23 1   
    36    17    42 1   
    37    18    43 1   
    38    19    22 1   
    39    20    21 1   
    40    21    44 1   
    41    22    45 1   
    42    23    24 1   
    43    24    46 1   
    44    24    47 1   
    45    24    48 1   
    46    25    27 1   
    47    25    49 1   
    48    27    50 1   
    49    27    51 1   
    50    28    29 ar  
    51    28    31 ar  
    52    28    52 1   
    53    29    30 ar  
    54    30    53 1   
    55    31    32 ar  
    56    31    36 ar  
    57    32    33 ar  
    58    33    34 ar  
    59    33    54 1   
    60    34    35 ar  
    61    34    55 1   
    62    35    36 ar  
    63    35    56 1   
    64    36    57 1   
    65    58    60 1   
@<TRIPOS>SUBSTRUCTURE
     1 FJS         1 TEMP              0 ****  ****    0 ROOT
