@<TRIPOS>MOLECULE
FJT
   40    43     1     0     0
SMALL
No Charge or Current Charge


@<TRIPOS>ATOM
      1 C01          5.2910    -1.1250     0.3050 ca         1 FJT       0.051100
      2 C02          6.2070    -0.4390    -0.4410 ca         1 FJT       0.063100
      3 C03          6.1070     0.9430    -0.6390 ca         1 FJT      -0.100000
      4 C04          5.0260     1.6230    -0.0390 ca         1 FJT      -0.097000
      5 C05          4.0730     0.9170     0.7390 ca         1 FJT      -0.122300
      6 C06          4.2050    -0.4810     0.9120 ca         1 FJT      -0.078000
      7 C07          2.9070     1.6570     1.3770 c3         1 FJT       0.153300
      8 C09          0.7290     0.7530     0.4690 c          1 FJT       0.545600
      9 C10         -0.3230     1.0060    -0.5730 cc         1 FJT       0.352500
     10 C13         -2.0800     0.7420    -1.7230 cc         1 FJT       0.426300
     11 C15         -3.3630     0.1160    -2.1990 c3         1 FJT      -0.049400
     12 C16         -4.2160    -0.4710    -1.0700 ca         1 FJT      -0.110300
     13 C17         -4.9130     0.3630    -0.1640 ca         1 FJT       0.165000
     14 C18         -5.6830    -0.1980     0.8670 ca         1 FJT      -0.148000
     15 C19         -5.7620    -1.5900     1.0020 ca         1 FJT       0.194000
     16 C20         -5.0740    -2.4280     0.1130 ca         1 FJT      -0.153000
     17 C21         -4.3020    -1.8720    -0.9210 ca         1 FJT      -0.063000
     18 C26          6.8190    -2.5640    -0.3920 c5         1 FJT       0.373600
     19 F22         -6.5030    -2.1280     1.9960 f          1 FJT      -0.169000
     20 N08          1.7490     1.6910     0.4820 ns         1 FJT      -0.483900
     21 N11         -0.3630     2.0090    -1.4490 nd         1 FJT      -0.353000
     22 N12         -1.5010     1.8340    -2.1930 nd         1 FJT      -0.362000
     23 O14         -1.3890     0.1680    -0.7070 os         1 FJT      -0.222000
     24 O24          0.7170    -0.1900     1.2550 o          1 FJT      -0.562100
     25 O25          7.1710    -1.2480    -0.9490 os         1 FJT      -0.342100
     26 O27          5.5600    -2.4540     0.3640 os         1 FJT      -0.341100
     27 Cl1         -4.8350     2.1200    -0.2950 cl         1 FJT      -0.180000
     28 H1           6.8420     1.4730    -1.2390 ha         1 FJT       0.136000
     29 H2           4.9270     2.6980    -0.1790 ha         1 FJT       0.118000
     30 H3           3.4850    -1.0480     1.4970 ha         1 FJT       0.146000
     31 H4           2.6300     1.1770     2.3250 h1         1 FJT       0.069700
     32 H5           3.2050     2.6890     1.6070 h1         1 FJT       0.069700
     33 H6          -3.9420     0.8610    -2.7560 hc         1 FJT       0.090200
     34 H7          -3.1120    -0.6590    -2.9320 hc         1 FJT       0.090200
     35 H8          -6.2160     0.4450     1.5610 ha         1 FJT       0.152000
     36 H9          -5.1400    -3.5070     0.2270 ha         1 FJT       0.140000
     37 H10         -3.7700    -2.5320    -1.6040 ha         1 FJT       0.125000
     38 H11          6.6960    -3.2870    -1.2070 h2         1 FJT       0.066200
     39 H12          7.6160    -2.8930     0.2850 h2         1 FJT       0.066200
     40 H13          1.6880     2.4380    -0.2030 hn         1 FJT       0.342500
@<TRIPOS>BOND
     1     1     2 ar  
     2     1     6 ar  
     3     1    26 1   
     4     2     3 ar  
     5     2    25 1   
     6     3     4 ar  
     7     3    28 1   
     8     4     5 ar  
     9     4    29 1   
    10     5     6 ar  
    11     5     7 1   
    12     6    30 1   
    13     7    20 1   
    14     7    31 1   
    15     7    32 1   
    16     8     9 1   
    17     8    20 1   
    18     8    24 2   
    19     9    21 2   
    20     9    23 1   
    21    10    11 1   
    22    10    22 2   
    23    10    23 1   
    24    11    12 1   
    25    11    33 1   
    26    11    34 1   
    27    12    13 ar  
    28    12    17 ar  
    29    13    14 ar  
    30    13    27 1   
    31    14    15 ar  
    32    14    35 1   
    33    15    16 ar  
    34    15    19 1   
    35    16    17 ar  
    36    16    36 1   
    37    17    37 1   
    38    18    25 1   
    39    18    26 1   
    40    18    38 1   
    41    18    39 1   
    42    20    40 1   
    43    21    22 1   
@<TRIPOS>SUBSTRUCTURE
     1 FJT         1 TEMP              0 ****  ****    0 ROOT
