@<TRIPOS>MOLECULE
FJT
   40    43     1     0     0
SMALL
abcg2


@<TRIPOS>ATOM
      1 C01          4.5930    -1.1300     0.5750 ca         1 FJT       0.051100
      2 C02          5.8080    -0.8770    -0.0490 ca         1 FJT       0.063100
      3 C03          6.1590     0.3850    -0.4550 ca         1 FJT      -0.100000
      4 C04          5.2290     1.4060    -0.2150 ca         1 FJT      -0.097000
      5 C05          4.0140     1.1620     0.4040 ca         1 FJT      -0.122300
      6 C06          3.6780    -0.1400     0.8170 ca         1 FJT      -0.078000
      7 C07          3.0300     2.2830     0.6200 c3         1 FJT       0.153300
      8 C09          0.6680     1.7130     0.2590 c          1 FJT       0.545600
      9 C10         -0.3740     1.6020    -0.7980 cc         1 FJT       0.352500
     10 C13         -2.2670     1.2170    -1.6130 cc         1 FJT       0.426300
     11 C15         -3.7070     0.8630    -1.6470 c3         1 FJT      -0.049400
     12 C16         -4.0210    -0.3400    -0.7990 ca         1 FJT      -0.110300
     13 C17         -4.3440    -0.2460     0.5520 ca         1 FJT       0.165000
     14 C18         -4.6230    -1.3670     1.3210 ca         1 FJT      -0.148000
     15 C19         -4.5680    -2.6030     0.7100 ca         1 FJT       0.194000
     16 C20         -4.2500    -2.7530    -0.6250 ca         1 FJT      -0.153000
     17 C21         -3.9820    -1.6120    -1.3630 ca         1 FJT      -0.063000
     18 C26          5.6340    -3.0680     0.2680 c5         1 FJT       0.373600
     19 F22         -4.8300    -3.6900     1.4450 f          1 FJT      -0.169000
     20 N08          1.8450     2.1380    -0.2020 ns         1 FJT      -0.483900
     21 N11         -0.2700     1.7920    -2.0630 nd         1 FJT      -0.353000
     22 N12         -1.4990     1.5380    -2.5980 nd         1 FJT      -0.362000
     23 O14         -1.6100     1.2370    -0.4480 os         1 FJT      -0.222000
     24 O24          0.3990     1.4270     1.4120 o          1 FJT      -0.562100
     25 O25          6.5150    -2.0290    -0.1380 os         1 FJT      -0.342100
     26 O27          4.5200    -2.4450     0.8930 os         1 FJT      -0.341100
     27 CL1         -4.4060     1.2990     1.3280 cl         1 FJT      -0.180000
     28 H1           7.1050     0.5890    -0.9370 ha         1 FJT       0.136000
     29 H2           5.4730     2.4140    -0.5270 ha         1 FJT       0.118000
     30 H3           2.7380    -0.3510     1.3120 ha         1 FJT       0.146000
     31 H4           2.7170     2.3310     1.6620 h1         1 FJT       0.069700
     32 H5           3.4950     3.2400     0.3790 h1         1 FJT       0.069700
     33 H6          -4.2940     1.7310    -1.3370 hc         1 FJT       0.090200
     34 H7          -3.9650     0.6680    -2.6880 hc         1 FJT       0.090200
     35 H8          -4.8740    -1.2780     2.3690 ha         1 FJT       0.152000
     36 H9          -4.2140    -3.7330    -1.0800 ha         1 FJT       0.140000
     37 H10         -3.7360    -1.7120    -2.4130 ha         1 FJT       0.125000
     38 H11          5.2990    -3.6350    -0.6070 h2         1 FJT       0.066200
     39 H12          6.1370    -3.7230     0.9790 h2         1 FJT       0.066200
     40 H13          1.9430     2.3060    -1.1930 hn         1 FJT       0.342500
@<TRIPOS>BOND
     1     1     2 ar  
     2     1     6 ar  
     3     1    26 1   
     4     2     3 ar  
     5     2    25 1   
     6     3     4 ar  
     7     3    28 1   
     8     4     5 ar  
     9     4    29 1   
    10     5     6 ar  
    11     5     7 1   
    12     6    30 1   
    13     7    20 1   
    14     7    31 1   
    15     7    32 1   
    16     8     9 1   
    17     8    20 1   
    18     8    24 2   
    19     9    21 2   
    20     9    23 1   
    21    10    11 1   
    22    10    22 2   
    23    10    23 1   
    24    11    12 1   
    25    11    33 1   
    26    11    34 1   
    27    12    13 ar  
    28    12    17 ar  
    29    13    14 ar  
    30    13    27 1   
    31    14    15 ar  
    32    14    35 1   
    33    15    16 ar  
    34    15    19 1   
    35    16    17 ar  
    36    16    36 1   
    37    17    37 1   
    38    18    25 1   
    39    18    26 1   
    40    18    38 1   
    41    18    39 1   
    42    20    40 1   
    43    21    22 1   
@<TRIPOS>SUBSTRUCTURE
     1 FJT         1 TEMP              0 ****  ****    0 ROOT
