@<TRIPOS>MOLECULE
FJU
   39    41     1     0     0
SMALL
No Charge or Current Charge


@<TRIPOS>ATOM
      1 C00        -24.9160     1.8620   -40.2900 ca         1 FJU      -0.082000
      2 C01        -24.2990     3.1130   -40.1210 ca         1 FJU      -0.099000
      3 C02        -23.1700     3.2300   -39.2930 ca         1 FJU      -0.106000
      4 C03        -22.6630     2.0980   -38.6360 ca         1 FJU       0.131100
      5 C04        -26.4210    -7.3800   -39.2410 ca         1 FJU      -0.087000
      6 C05        -25.6360    -8.2110   -38.4260 ca         1 FJU      -0.137000
      7 C06        -24.5500    -7.6770   -37.7110 ca         1 FJU      -0.052300
      8 C07        -24.2600    -6.3040   -37.8190 ca         1 FJU      -0.159000
      9 C08        -26.1260    -6.0100   -39.3460 ca         1 FJU      -0.138000
     10 C09        -25.0390    -5.4570   -38.6320 ca         1 FJU      -0.012000
     11 C14        -24.5120    -1.6680   -39.1380 cc         1 FJU      -0.296800
     12 C15        -25.0250    -0.5670   -39.7910 cd         1 FJU      -0.030200
     13 C16        -24.4040     0.7280   -39.6300 ca         1 FJU      -0.117800
     14 C17        -23.2780     0.8370   -38.8010 ca         1 FJU       0.074100
     15 C19        -23.3460    -1.4670   -38.3010 cc         1 FJU       0.710900
     16 C21        -24.1760    -8.5650   -35.3590 c3         1 FJU      -0.086100
     17 N01        -24.6710    -4.0830   -38.6800 ns         1 FJU      -0.141000
     18 N02        -22.7660    -2.4010   -37.6370 n2         1 FJU      -0.837100
     19 O01        -22.7270    -0.2440   -38.1240 os         1 FJU      -0.394700
     20 O02        -21.5650     2.2180   -37.8320 oh         1 FJU      -0.526100
     21 O04        -26.1810    -3.0720   -40.0680 o          1 FJU      -0.606100
     22 H1         -25.7900     1.7780   -40.9330 ha         1 FJU       0.129000
     23 H2         -24.6950     3.9890   -40.6310 ha         1 FJU       0.127000
     24 H3         -22.6900     4.1970   -39.1590 ha         1 FJU       0.138000
     25 H4         -27.2600    -7.7980   -39.7920 ha         1 FJU       0.112000
     26 H5         -25.8750    -9.2690   -38.3490 ha         1 FJU       0.111000
     27 H6         -23.4210    -5.8910   -37.2630 ha         1 FJU       0.113000
     28 H7         -26.7550    -5.4000   -39.9870 ha         1 FJU       0.145000
     29 H8         -25.9000    -0.6560   -40.4330 ha         1 FJU       0.224000
     30 H9         -23.7130    -9.6050   -37.1960 hc         1 FJU       0.044700
     31 H10        -22.6490    -8.2520   -36.8570 hc         1 FJU       0.044700
     32 H11        -23.5450    -9.2190   -34.7460 hc         1 FJU       0.034700
     33 H12        -24.1290    -7.5510   -34.9430 hc         1 FJU       0.034700
     34 H13        -25.2110    -8.9200   -35.2890 hc         1 FJU       0.034700
     35 H14        -23.8600    -3.8640   -38.1150 hn         1 FJU       0.202000
     36 H15        -21.9780    -1.9570   -37.1460 hn         1 FJU       0.418400
     37 H17        -21.3770     1.3220   -37.4750 ho         1 FJU       0.483000
     38 C13        -25.1970    -2.9820   -39.3430 c          1 FJU       0.627300
     39 C20        -23.6980    -8.5730   -36.8230 c3         1 FJU      -0.032100
@<TRIPOS>BOND
     1     1     2 ar  
     2     1    13 ar  
     3     1    22 1   
     4     2     3 ar  
     5     2    23 1   
     6     3     4 ar  
     7     3    24 1   
     8     4    14 ar  
     9     4    20 1   
    10     5     6 ar  
    11     5     9 ar  
    12     5    25 1   
    13     6     7 ar  
    14     6    26 1   
    15     7     8 ar  
    16     7    39 1   
    17     8    10 ar  
    18     8    27 1   
    19     9    10 ar  
    20     9    28 1   
    21    10    17 1   
    22    11    12 2   
    23    11    15 1   
    24    11    38 1   
    25    12    13 1   
    26    12    29 1   
    27    13    14 ar  
    28    14    19 1   
    29    15    18 2   
    30    15    19 1   
    31    16    32 1   
    32    16    33 1   
    33    16    34 1   
    34    16    39 1   
    35    17    35 1   
    36    17    38 1   
    37    18    36 1   
    38    20    37 1   
    39    21    38 2   
    40    30    39 1   
    41    31    39 1   
@<TRIPOS>SUBSTRUCTURE
     1 FJU         1 TEMP              0 ****  ****    0 ROOT
