@<TRIPOS>MOLECULE
FJU
   39    41     1     0     0
SMALL
bcc


@<TRIPOS>ATOM
      1 C00        -25.0260     1.8200   -40.2170 ca         1 FJU      -0.100000
      2 C01        -24.4180     3.0490   -40.0530 ca         1 FJU      -0.117000
      3 C02        -23.2510     3.1690   -39.3030 ca         1 FJU      -0.124000
      4 C03        -22.6690     2.0620   -38.7020 ca         1 FJU       0.131100
      5 C04        -26.3380    -7.2780   -39.2100 ca         1 FJU      -0.105000
      6 C05        -25.5840    -8.1080   -38.3980 ca         1 FJU      -0.155000
      7 C06        -24.5030    -7.5910   -37.6860 ca         1 FJU      -0.052300
      8 C07        -24.2090    -6.2420   -37.8120 ca         1 FJU      -0.177000
      9 C08        -26.0460    -5.9250   -39.3370 ca         1 FJU      -0.156000
     10 C09        -24.9670    -5.3960   -38.6300 ca         1 FJU       0.080600
     11 C14        -24.4470    -1.6920   -39.1210 cc         1 FJU      -0.296800
     12 C15        -25.0130    -0.6230   -39.7190 cd         1 FJU       0.019800
     13 C16        -24.4570     0.6930   -39.6180 ca         1 FJU      -0.117800
     14 C17        -23.2930     0.8260   -38.8730 ca         1 FJU       0.074100
     15 C19        -23.2180    -1.5060   -38.3460 cc         1 FJU       0.710900
     16 C21        -24.4020    -8.6620   -35.4160 c3         1 FJU      -0.086100
     17 N01        -24.5580    -4.0610   -38.6700 ns         1 FJU      -0.467100
     18 N02        -22.6150    -2.4460   -37.7500 n2         1 FJU      -0.837100
     19 O01        -22.7160    -0.2460   -38.2800 os         1 FJU      -0.394700
     20 O02        -21.5450     2.2190   -37.9840 oh         1 FJU      -0.487100
     21 O04        -26.1510    -3.0870   -39.9710 o          1 FJU      -0.606100
     22 H1         -25.9330     1.7170   -40.7980 ha         1 FJU       0.147000
     23 H2         -24.8440     3.9310   -40.5100 ha         1 FJU       0.145000
     24 H3         -22.7810     4.1370   -39.1790 ha         1 FJU       0.156000
     25 H4         -27.1750    -7.6850   -39.7640 ha         1 FJU       0.130000
     26 H5         -25.8320    -9.1600   -38.3170 ha         1 FJU       0.129000
     27 H6         -23.3670    -5.8310   -37.2630 ha         1 FJU       0.131000
     28 H7         -26.6500    -5.3060   -39.9800 ha         1 FJU       0.163000
     29 H8         -25.9180    -0.7540   -40.2980 ha         1 FJU       0.174000
     30 H9         -23.5410    -9.4410   -37.2290 hc         1 FJU       0.044700
     31 H10        -22.7160    -8.0310   -36.5990 hc         1 FJU       0.044700
     32 H11        -23.8120    -9.3030   -34.7600 hc         1 FJU       0.034700
     33 H12        -24.5500    -7.7080   -34.9100 hc         1 FJU       0.034700
     34 H13        -25.3810    -9.1250   -35.5440 hc         1 FJU       0.034700
     35 H14        -23.7080    -3.8250   -38.1490 hn         1 FJU       0.368500
     36 H15        -21.7770    -2.1520   -37.2600 hn         1 FJU       0.418400
     37 H17        -21.2230     1.3770   -37.6420 ho         1 FJU       0.444000
     38 C13        -25.1340    -3.0180   -39.2970 c          1 FJU       0.694300
     39 C20        -23.7040    -8.4670   -36.7610 c3         1 FJU      -0.032100
@<TRIPOS>BOND
     1     1     2 ar  
     2     1    13 ar  
     3     1    22 1   
     4     2     3 ar  
     5     2    23 1   
     6     3     4 ar  
     7     3    24 1   
     8     4    14 ar  
     9     4    20 1   
    10     5     6 ar  
    11     5     9 ar  
    12     5    25 1   
    13     6     7 ar  
    14     6    26 1   
    15     7     8 ar  
    16     7    39 1   
    17     8    10 ar  
    18     8    27 1   
    19     9    10 ar  
    20     9    28 1   
    21    10    17 1   
    22    11    12 2   
    23    11    15 1   
    24    11    38 1   
    25    12    13 1   
    26    12    29 1   
    27    13    14 ar  
    28    14    19 1   
    29    15    18 2   
    30    15    19 1   
    31    16    32 1   
    32    16    33 1   
    33    16    34 1   
    34    16    39 1   
    35    17    35 1   
    36    17    38 1   
    37    18    36 1   
    38    20    37 1   
    39    21    38 2   
    40    30    39 1   
    41    31    39 1   
@<TRIPOS>SUBSTRUCTURE
     1 FJU         1 TEMP              0 ****  ****    0 ROOT
