@<TRIPOS>MOLECULE
FJW
   44    48     1     0     0
SMALL
No Charge or Current Charge


@<TRIPOS>ATOM
      1 C10         33.3290   -13.0640   -22.1430 cc         1 FJW       0.288900
      2 C13         31.9880   -11.3520   -21.5100 ca         1 FJW       0.358500
      3 C17         31.6230   -12.0440   -18.8900 ca         1 FJW      -0.212000
      4 C20         32.9240    -9.0970   -23.8660 ca         1 FJW      -0.164300
      5 C21         32.9530    -8.0860   -22.8840 ca         1 FJW      -0.058000
      6 C22         33.8890    -7.0400   -22.9690 ca         1 FJW      -0.135000
      7 C24         34.7820    -8.0010   -25.0150 ca         1 FJW      -0.162000
      8 C01         35.3780   -15.8220   -20.8570 ca         1 FJW       0.143900
      9 C05         34.1830   -14.2740   -22.0920 ca         1 FJW       0.184700
     10 C07         36.5950   -17.7450   -21.9720 cx         1 FJW      -0.075400
     11 C08         36.4240   -18.7910   -20.8930 cx         1 FJW      -0.125900
     12 C14         32.6020   -12.4770   -21.0240 ca         1 FJW      -0.226900
     13 C16         31.0360   -10.8970   -19.4590 ca         1 FJW       0.371900
     14 C23         34.8050    -6.9960   -24.0340 ca         1 FJW      -0.072000
     15 C25         33.8480    -9.0460   -24.9300 ca         1 FJW       0.199000
     16 C02         35.7260   -16.5150   -22.0290 ca         1 FJW      -0.237300
     17 C03         35.2350   -15.9790   -23.2310 ca         1 FJW       0.399900
     18 N04         34.4740   -14.8780   -23.2710 nb         1 FJW      -0.241000
     19 N06         34.6110   -14.7150   -20.8860 nb         1 FJW      -0.222000
     20 C09         36.0520   -19.1120   -22.3190 cx         1 FJW      -0.125900
     21 N11         33.1600   -12.3470   -23.2660 nd         1 FJW      -0.447100
     22 N12         32.3430   -11.3050   -22.8470 na         1 FJW      -0.023100
     23 N15         31.2050   -10.5480   -20.7580 nb         1 FJW      -0.684000
     24 C18         32.4310   -12.8750   -19.6870 ca         1 FJW       0.018000
     25 C19         31.9080   -10.2310   -23.7570 c3         1 FJW       0.154900
     26 F26         33.8470   -10.0040   -25.8850 f          1 FJW      -0.168000
     27 N27         35.5070   -16.5390   -24.4400 nv         1 FJW      -1.078900
     28 H1          31.4450   -12.2830   -17.8460 ha         1 FJW       0.124000
     29 H2          32.2510    -8.1100   -22.0520 ha         1 FJW       0.129000
     30 H3          33.9050    -6.2630   -22.2080 ha         1 FJW       0.119000
     31 H4          35.4880    -7.9740   -25.8410 ha         1 FJW       0.132000
     32 H5          35.7170   -16.1530   -19.8760 h4         1 FJW       0.019100
     33 H6          37.6180   -17.5370   -22.2780 hc         1 FJW       0.079700
     34 H7          37.3230   -19.2500   -20.4870 hc         1 FJW       0.073950
     35 H8          35.6140   -18.6690   -20.1780 hc         1 FJW       0.073950
     36 H9          30.4050   -10.2420   -18.8590 h4         1 FJW       0.017100
     37 H10         35.5280    -6.1850   -24.0980 ha         1 FJW       0.116000
     38 H11         34.9940   -19.1940   -22.5580 hc         1 FJW       0.073950
     39 H12         36.6980   -19.7900   -22.8710 hc         1 FJW       0.073950
     40 H13         32.8800   -13.7730   -19.2710 ha         1 FJW       0.144000
     41 H14         30.9520    -9.8300   -23.4000 h1         1 FJW       0.081700
     42 H15         31.7200   -10.6680   -24.7460 h1         1 FJW       0.081700
     43 H16         35.3280   -15.9950   -25.2810 hn         1 FJW       0.500000
     44 H17         36.2260   -17.2550   -24.4940 hn         1 FJW       0.500000
@<TRIPOS>BOND
     1     1     9 1   
     2     1    12 1   
     3     1    21 2   
     4     2    12 ar  
     5     2    22 1   
     6     2    23 ar  
     7     3    13 ar  
     8     3    24 ar  
     9     3    28 1   
    10     4     5 ar  
    11     4    15 ar  
    12     4    25 1   
    13     5     6 ar  
    14     5    29 1   
    15     6    14 ar  
    16     6    30 1   
    17     7    14 ar  
    18     7    15 ar  
    19     7    31 1   
    20     8    16 ar  
    21     8    19 ar  
    22     8    32 1   
    23     9    18 ar  
    24     9    19 ar  
    25    10    11 1   
    26    10    16 1   
    27    10    20 1   
    28    10    33 1   
    29    11    20 1   
    30    11    34 1   
    31    11    35 1   
    32    12    24 ar  
    33    13    23 ar  
    34    13    36 1   
    35    14    37 1   
    36    15    26 1   
    37    16    17 ar  
    38    17    18 ar  
    39    17    27 1   
    40    20    38 1   
    41    20    39 1   
    42    21    22 1   
    43    22    25 1   
    44    24    40 1   
    45    25    41 1   
    46    25    42 1   
    47    27    43 1   
    48    27    44 1   
@<TRIPOS>SUBSTRUCTURE
     1 FJW         1 TEMP              0 ****  ****    0 ROOT
