@<TRIPOS>MOLECULE
FJW
   44    48     1     0     0
SMALL
abcg2


@<TRIPOS>ATOM
      1 C10         33.3200   -13.0860   -21.9860 cc         1 FJW       0.288900
      2 C13         32.0230   -11.3630   -21.4220 ca         1 FJW       0.358500
      3 C17         31.8400   -11.7150   -18.7910 ca         1 FJW      -0.212000
      4 C20         32.8450    -9.2940   -23.8580 ca         1 FJW      -0.164300
      5 C21         32.6920    -8.1240   -23.1190 ca         1 FJW      -0.058000
      6 C22         33.6200    -7.0960   -23.1960 ca         1 FJW      -0.135000
      7 C24         34.9040    -8.3830   -24.7730 ca         1 FJW      -0.162000
      8 C01         35.1170   -15.9790   -20.8700 ca         1 FJW       0.143900
      9 C05         34.1610   -14.2850   -22.0060 ca         1 FJW       0.184700
     10 C07         36.5400   -17.6990   -22.0300 cx         1 FJW      -0.075400
     11 C08         36.2270   -18.8730   -21.1550 cx         1 FJW      -0.125900
     12 C14         32.6960   -12.4620   -20.8660 ca         1 FJW      -0.226900
     13 C16         31.2190   -10.6550   -19.4730 ca         1 FJW       0.371900
     14 C23         34.7270    -7.2290   -24.0230 ca         1 FJW      -0.072000
     15 C25         33.9620    -9.3880   -24.6750 ca         1 FJW       0.199000
     16 C02         35.6880   -16.4880   -22.0090 ca         1 FJW      -0.237300
     17 C03         35.4230   -15.7560   -23.1950 ca         1 FJW       0.399900
     18 N04         34.6580   -14.6650   -23.1750 nb         1 FJW      -0.241000
     19 N06         34.3510   -14.8830   -20.8410 nb         1 FJW      -0.222000
     20 C09         36.0100   -18.9750   -22.6310 cx         1 FJW      -0.125900
     21 N11         33.0400   -12.4210   -23.0850 nd         1 FJW      -0.447100
     22 N12         32.2550   -11.4000   -22.7580 na         1 FJW      -0.023100
     23 N15         31.2960   -10.4600   -20.7760 nb         1 FJW      -0.684000
     24 C18         32.5920   -12.6410   -19.4850 ca         1 FJW       0.018000
     25 C19         31.8490   -10.4180   -23.7400 c3         1 FJW       0.154900
     26 F26         34.1370   -10.4990   -25.4080 f          1 FJW      -0.168000
     27 N27         35.9160   -16.1480   -24.3760 nv         1 FJW      -1.078900
     28 H1          31.7190   -11.7920   -17.7200 ha         1 FJW       0.124000
     29 H2          31.8280    -8.0250   -22.4720 ha         1 FJW       0.129000
     30 H3          33.4790    -6.1960   -22.6140 ha         1 FJW       0.119000
     31 H4          35.7580    -8.5010   -25.4270 ha         1 FJW       0.132000
     32 H5          35.2780   -16.4770   -19.9200 h4         1 FJW       0.019100
     33 H6          37.5970   -17.5100   -22.2050 hc         1 FJW       0.079700
     34 H7          37.0590   -19.4110   -20.7190 hc         1 FJW       0.073950
     35 H8          35.3530   -18.8180   -20.5190 hc         1 FJW       0.073950
     36 H9          30.6330    -9.9350   -18.9130 h4         1 FJW       0.017100
     37 H10         35.4570    -6.4330   -24.0900 ha         1 FJW       0.116000
     38 H11         34.9890   -18.9710   -22.9920 hc         1 FJW       0.073950
     39 H12         36.6910   -19.5820   -23.2140 hc         1 FJW       0.073950
     40 H13         33.0770   -13.4660   -18.9840 ha         1 FJW       0.144000
     41 H14         30.8840   -10.0210   -23.4290 h1         1 FJW       0.081700
     42 H15         31.6990   -10.9360   -24.6850 h1         1 FJW       0.081700
     43 H16         35.7810   -15.5720   -25.1890 hn         1 FJW       0.500000
     44 H17         36.5580   -16.9180   -24.4460 hn         1 FJW       0.500000
@<TRIPOS>BOND
     1     1     9 1   
     2     1    12 1   
     3     1    21 2   
     4     2    12 ar  
     5     2    22 1   
     6     2    23 ar  
     7     3    13 ar  
     8     3    24 ar  
     9     3    28 1   
    10     4     5 ar  
    11     4    15 ar  
    12     4    25 1   
    13     5     6 ar  
    14     5    29 1   
    15     6    14 ar  
    16     6    30 1   
    17     7    14 ar  
    18     7    15 ar  
    19     7    31 1   
    20     8    16 ar  
    21     8    19 ar  
    22     8    32 1   
    23     9    18 ar  
    24     9    19 ar  
    25    10    11 1   
    26    10    16 1   
    27    10    20 1   
    28    10    33 1   
    29    11    20 1   
    30    11    34 1   
    31    11    35 1   
    32    12    24 ar  
    33    13    23 ar  
    34    13    36 1   
    35    14    37 1   
    36    15    26 1   
    37    16    17 ar  
    38    17    18 ar  
    39    17    27 1   
    40    20    38 1   
    41    20    39 1   
    42    21    22 1   
    43    22    25 1   
    44    24    40 1   
    45    25    41 1   
    46    25    42 1   
    47    27    43 1   
    48    27    44 1   
@<TRIPOS>SUBSTRUCTURE
     1 FJW         1 TEMP              0 ****  ****    0 ROOT
