@<TRIPOS>MOLECULE
FJX
   32    35     1     0     0
SMALL
abcg2


@<TRIPOS>ATOM
      1 N12        -21.1890    11.5230   -11.4170 na         1 FJX      -0.300300
      2 C13        -21.1510    11.5360   -12.7890 cc         1 FJX       0.633100
      3 C15        -19.8080    10.0240   -12.2330 ca         1 FJX      -0.043600
      4 C20        -19.0970     9.1800    -9.7870 ca         1 FJX       0.398900
      5 C01        -19.5340    15.2350   -10.1550 ca         1 FJX       0.063100
      6 C02        -20.0730    13.9800   -10.1420 ca         1 FJX      -0.086000
      7 C03        -21.4030    13.8130   -10.5770 ca         1 FJX      -0.084300
      8 C04        -22.1160    14.9310   -10.9890 ca         1 FJX       0.005100
      9 C05        -21.5630    16.2220   -10.9960 ca         1 FJX      -0.083000
     10 C06        -20.2660    16.3360   -10.5760 ca         1 FJX       0.064100
     11 O07        -19.4990    17.4430   -10.5010 os         1 FJX      -0.338100
     12 C08        -18.2870    17.0510    -9.8650 c5         1 FJX       0.373600
     13 O09        -18.2920    15.6300    -9.8040 os         1 FJX      -0.337100
     14 BR         -23.9150    14.8080   -11.5660 br         1 FJX      -0.082100
     15 C11        -21.9490    12.4070   -10.5540 c3         1 FJX       0.136900
     16 N14        -20.3530    10.6650   -13.3210 nd         1 FJX      -0.608100
     17 C16        -20.3130    10.5460   -11.0360 ca         1 FJX       0.155500
     18 O17        -21.9130    12.4080   -13.4080 oh         1 FJX      -0.592600
     19 C18        -18.8880     9.0160   -12.0520 ca         1 FJX       0.300000
     20 N19        -18.5360     8.5970   -10.8590 nb         1 FJX      -0.250000
     21 N21        -19.9960    10.1710    -9.8200 nb         1 FJX      -0.256000
     22 CL         -18.1530     8.2640   -13.4190 cl         1 FJX      -0.133000
     23 N23        -18.7440     8.6970    -8.5770 nv         1 FJX      -1.049900
     24 H051       -22.1290    17.0840   -11.3200 ha         1 FJX       0.151000
     25 H081       -17.4350    17.3920   -10.4530 h2         1 FJX       0.069700
     26 H082       -18.2480    17.4670    -8.8540 h2         1 FJX       0.069700
     27 H112       -23.0000    12.3540   -10.8300 h1         1 FJX       0.088200
     28 H111       -21.8710    11.9960    -9.5470 h1         1 FJX       0.088200
     29 H171       -21.8070    12.3200   -14.3660 ho         1 FJX       0.511000
     30 H231       -17.9240     8.1190    -8.5170 hn         1 FJX       0.495500
     31 H232       -18.9690     9.2430    -7.7630 hn         1 FJX       0.495500
     32 H021       -19.4970    13.1290    -9.8000 ha         1 FJX       0.146000
@<TRIPOS>BOND
     1     1     2 1   
     2     1    15 1   
     3     1    17 1   
     4     2    16 2   
     5     2    18 1   
     6     3    16 1   
     7     3    17 ar  
     8     3    19 ar  
     9     4    20 ar  
    10     4    21 ar  
    11     4    23 1   
    12     5     6 ar  
    13     5    10 ar  
    14     5    13 1   
    15     6     7 ar  
    16     6    32 1   
    17     7     8 ar  
    18     7    15 1   
    19     8     9 ar  
    20     8    14 1   
    21     9    10 ar  
    22     9    24 1   
    23    10    11 1   
    24    11    12 1   
    25    12    13 1   
    26    12    25 1   
    27    12    26 1   
    28    15    27 1   
    29    15    28 1   
    30    17    21 ar  
    31    18    29 1   
    32    19    20 ar  
    33    19    22 1   
    34    23    30 1   
    35    23    31 1   
@<TRIPOS>SUBSTRUCTURE
     1 FJX         1 TEMP              0 ****  ****    0 ROOT
