@<TRIPOS>MOLECULE
FJX
   32    35     1     0     0
SMALL
No Charge or Current Charge


@<TRIPOS>ATOM
      1 N12        -21.2770    11.5190   -11.5210 na         1 FJX      -0.300300
      2 C13        -21.3420    11.4010   -12.8990 cc         1 FJX       0.633100
      3 C15        -19.9160     9.9760   -12.2270 ca         1 FJX      -0.043600
      4 C20        -18.9880     9.2980    -9.8290 ca         1 FJX       0.398900
      5 C01        -19.5530    15.2560    -9.9390 ca         1 FJX       0.063100
      6 C02        -20.1230    13.9800    -9.9910 ca         1 FJX      -0.086000
      7 C03        -21.4070    13.8290   -10.5710 ca         1 FJX      -0.084300
      8 C04        -22.0790    14.9810   -11.0780 ca         1 FJX       0.005100
      9 C05        -21.4730    16.2540   -11.0040 ca         1 FJX      -0.083000
     10 C06        -20.2030    16.3520   -10.4270 ca         1 FJX       0.064100
     11 O07        -19.4860    17.4940   -10.2720 os         1 FJX      -0.338100
     12 C08        -18.2350    17.0110    -9.6640 c5         1 FJX       0.373600
     13 O09        -18.3410    15.5640    -9.4120 os         1 FJX      -0.337100
     14 Br         -23.8200    14.8760   -11.8820 br         1 FJX      -0.082100
     15 C11        -22.0190    12.4280   -10.6290 c3         1 FJX       0.136900
     16 N14        -20.5270    10.4700   -13.3890 nd         1 FJX      -0.608100
     17 C16        -20.3650    10.6030   -11.0820 ca         1 FJX       0.155500
     18 O17        -22.1520    12.1460   -13.6410 oh         1 FJX      -0.592600
     19 C18        -18.9450     8.9610   -12.0900 ca         1 FJX       0.300000
     20 N19        -18.4740     8.6190   -10.8710 nb         1 FJX      -0.250000
     21 N21        -19.9110    10.2770    -9.8560 nb         1 FJX      -0.256000
     22 Cl         -18.3000     8.0950   -13.4810 cl         1 FJX      -0.133000
     23 N23        -18.5190     8.9570    -8.6050 nv         1 FJX      -1.049900
     24 H051       -21.9760    17.1380   -11.3860 ha         1 FJX       0.151000
     25 H081       -17.4040    17.1960   -10.3550 h2         1 FJX       0.069700
     26 H082       -18.0600    17.5360    -8.7180 h2         1 FJX       0.069700
     27 H112       -23.0630    12.4580   -10.9570 h1         1 FJX       0.088200
     28 H111       -22.0270    12.0060    -9.6160 h1         1 FJX       0.088200
     29 H171       -21.9620    11.8210   -14.5430 ho         1 FJX       0.511000
     30 H231       -17.6780     8.3870    -8.5470 hn         1 FJX       0.495500
     31 H232       -18.7120     9.5720    -7.8180 hn         1 FJX       0.495500
     32 H021       -19.5810    13.1270    -9.5910 ha         1 FJX       0.146000
@<TRIPOS>BOND
     1     1     2 1   
     2     1    15 1   
     3     1    17 1   
     4     2    16 2   
     5     2    18 1   
     6     3    16 1   
     7     3    17 ar  
     8     3    19 ar  
     9     4    20 ar  
    10     4    21 ar  
    11     4    23 1   
    12     5     6 ar  
    13     5    10 ar  
    14     5    13 1   
    15     6     7 ar  
    16     6    32 1   
    17     7     8 ar  
    18     7    15 1   
    19     8     9 ar  
    20     8    14 1   
    21     9    10 ar  
    22     9    24 1   
    23    10    11 1   
    24    11    12 1   
    25    12    13 1   
    26    12    25 1   
    27    12    26 1   
    28    15    27 1   
    29    15    28 1   
    30    17    21 ar  
    31    18    29 1   
    32    19    20 ar  
    33    19    22 1   
    34    23    30 1   
    35    23    31 1   
@<TRIPOS>SUBSTRUCTURE
     1 FJX         1 TEMP              0 ****  ****    0 ROOT
