@<TRIPOS>MOLECULE
FJY
   64    69     1     0     0
SMALL
bcc


@<TRIPOS>ATOM
      1 C26          2.7070     2.7280    -0.8440 c6         1 FJY       0.158300
      2 C27          3.1510     3.5630    -2.0290 c6         1 FJY       0.123900
      3 O1           4.4750     4.0210    -1.8770 os         1 FJY      -0.398600
      4 C28          5.3540     2.9300    -1.7280 c6         1 FJY       0.123900
      5 C29          4.9930     2.0680    -0.5320 c6         1 FJY       0.158300
      6 N4           3.6210     1.6110    -0.6410 nh         1 FJY      -0.645000
      7 C22          3.2030     0.5880     0.2140 ca         1 FJY       0.187600
      8 C23          1.9050     0.0660     0.0710 ca         1 FJY      -0.218000
      9 C19          1.4900    -0.9450     0.9170 ca         1 FJY       0.187600
     10 C21          4.0450     0.0440     1.1910 ca         1 FJY      -0.230000
     11 C20          3.6120    -1.0080     2.0020 ca         1 FJY      -0.047000
     12 C18          2.3350    -1.5000     1.8790 ca         1 FJY      -0.175300
     13 C17          1.6440    -2.6600     2.5580 c5         1 FJY       0.002300
     14 C24          2.1490    -3.9810     1.9660 c3         1 FJY      -0.078600
     15 C25          1.8020    -2.6690     4.0740 c3         1 FJY      -0.078600
     16 C16          0.1760    -2.4110     2.1490 c5         1 FJY       0.215800
     17 N2           0.2670    -1.5950     0.9330 nh         1 FJY      -0.569400
     18 C7          -0.9040    -1.0830     0.3580 ca         1 FJY       0.189600
     19 C8          -1.3880     0.1730     0.6590 ca         1 FJY      -0.204600
     20 C11         -0.7280     1.0420     1.6890 c3         1 FJY      -0.045800
     21 C1          -1.6270    -1.9290    -0.5230 ca         1 FJY      -0.158300
     22 C6          -1.1820    -3.2170    -0.8940 ca         1 FJY      -0.069000
     23 C5          -1.9370    -4.0070    -1.7160 ca         1 FJY      -0.170000
     24 C4          -3.1620    -3.5140    -2.1930 ca         1 FJY       0.147900
     25 F1          -3.8870    -4.3100    -2.9910 f          1 FJY      -0.138900
     26 C3          -3.6260    -2.2710    -1.8870 ca         1 FJY      -0.218300
     27 C2          -2.8490    -1.4470    -1.0420 ca         1 FJY       0.427600
     28 N1          -3.2940    -0.2030    -0.7760 nb         1 FJY      -0.665000
     29 C9          -2.5910     0.5760     0.0070 cp         1 FJY       0.502800
     30 C10         -3.1590     1.9280     0.2090 cp         1 FJY      -0.268800
     31 C12         -2.4040     3.0880     0.0720 ca         1 FJY      -0.074000
     32 C13         -3.0230     4.3170     0.2260 ca         1 FJY      -0.254300
     33 C14         -4.3770     4.3440     0.5220 ca         1 FJY       0.410200
     34 N3          -5.1130     3.2460     0.6540 nb         1 FJY      -0.668000
     35 C15         -4.5160     2.0740     0.4930 ca         1 FJY       0.439200
     36 H1           2.6540     3.3580     0.0570 h1         1 FJY       0.046950
     37 H2           1.7000     2.3710    -1.0510 h1         1 FJY       0.046950
     38 H3           3.0540     2.9690    -2.9480 h1         1 FJY       0.053700
     39 H4           2.5060     4.4380    -2.1220 h1         1 FJY       0.053700
     40 H5           5.3520     2.3100    -2.6350 h1         1 FJY       0.053700
     41 H6           6.3590     3.3320    -1.5980 h1         1 FJY       0.053700
     42 H7           5.6690     1.2100    -0.5240 h1         1 FJY       0.046950
     43 H8           5.1660     2.6290     0.3990 h1         1 FJY       0.046950
     44 H9           1.2380     0.4390    -0.6950 ha         1 FJY       0.143000
     45 H10          5.0400     0.4330     1.3470 ha         1 FJY       0.132000
     46 H11          4.2940    -1.4190     2.7380 ha         1 FJY       0.130000
     47 H12          3.2160    -4.1040     2.1560 hc         1 FJY       0.038700
     48 H13          1.6260    -4.8300     2.4120 hc         1 FJY       0.038700
     49 H14          1.9960    -4.0180     0.8860 hc         1 FJY       0.038700
     50 H15          2.8420    -2.8410     4.3590 hc         1 FJY       0.038700
     51 H16          1.4870    -1.7210     4.5120 hc         1 FJY       0.038700
     52 H17          1.2040    -3.4660     4.5190 hc         1 FJY       0.038700
     53 H18         -0.3700    -3.3380     1.9660 h1         1 FJY       0.049700
     54 H19         -0.3580    -1.8570     2.9320 h1         1 FJY       0.049700
     55 H20          0.0210     1.7050     1.2530 hc         1 FJY       0.050367
     56 H21         -1.4570     1.6620     2.2070 hc         1 FJY       0.050367
     57 H22         -0.2170     0.4440     2.4420 hc         1 FJY       0.050367
     58 H23         -0.2290    -3.5770    -0.5300 ha         1 FJY       0.153000
     59 H24         -1.6030    -4.9940    -2.0050 ha         1 FJY       0.153000
     60 H25         -4.5650    -1.9040    -2.2790 ha         1 FJY       0.169000
     61 H26         -1.3510     3.0370    -0.1730 ha         1 FJY       0.137000
     62 H27         -2.4690     5.2380     0.1140 ha         1 FJY       0.143000
     63 H28         -4.8890     5.2900     0.6550 h4         1 FJY       0.020100
     64 H29         -5.1380     1.1920     0.6020 h4         1 FJY       0.033100
@<TRIPOS>BOND
     1     1     2 1   
     2     1     6 1   
     3     1    36 1   
     4     1    37 1   
     5     2     3 1   
     6     2    38 1   
     7     2    39 1   
     8     3     4 1   
     9     4     5 1   
    10     4    40 1   
    11     4    41 1   
    12     5     6 1   
    13     5    42 1   
    14     5    43 1   
    15     6     7 1   
    16     7     8 ar  
    17     7    10 ar  
    18     8     9 ar  
    19     8    44 1   
    20     9    12 ar  
    21     9    17 1   
    22    10    11 ar  
    23    10    45 1   
    24    11    12 ar  
    25    11    46 1   
    26    12    13 1   
    27    13    14 1   
    28    13    15 1   
    29    13    16 1   
    30    14    47 1   
    31    14    48 1   
    32    14    49 1   
    33    15    50 1   
    34    15    51 1   
    35    15    52 1   
    36    16    17 1   
    37    16    53 1   
    38    16    54 1   
    39    17    18 1   
    40    18    19 ar  
    41    18    21 ar  
    42    19    20 1   
    43    19    29 ar  
    44    20    55 1   
    45    20    56 1   
    46    20    57 1   
    47    21    22 ar  
    48    21    27 ar  
    49    22    23 ar  
    50    22    58 1   
    51    23    24 ar  
    52    23    59 1   
    53    24    25 1   
    54    24    26 ar  
    55    26    27 ar  
    56    26    60 1   
    57    27    28 ar  
    58    28    29 ar  
    59    29    30 1   
    60    30    31 ar  
    61    30    35 ar  
    62    31    32 ar  
    63    31    61 1   
    64    32    33 ar  
    65    32    62 1   
    66    33    34 ar  
    67    33    63 1   
    68    34    35 ar  
    69    35    64 1   
@<TRIPOS>SUBSTRUCTURE
     1 FJY         1 TEMP              0 ****  ****    0 ROOT
