@<TRIPOS>MOLECULE
FJY
   64    69     1     0     0
SMALL
No Charge or Current Charge


@<TRIPOS>ATOM
      1 C26          2.8540     2.8190    -0.7330 c6         1 FJY       0.158300
      2 C27          3.1340     3.5890    -2.0580 c6         1 FJY       0.147100
      3 O1           4.5570     3.7540    -2.2660 os         1 FJY      -0.445000
      4 C28          5.2550     2.4890    -2.3450 c6         1 FJY       0.147100
      5 C29          5.0690     1.6710    -1.0320 c6         1 FJY       0.158300
      6 N4           3.6260     1.5350    -0.6460 nh         1 FJY      -0.783400
      7 C22          3.1930     0.5000     0.2170 ca         1 FJY       0.326000
      8 C23          1.8700     0.0360     0.1340 ca         1 FJY      -0.200000
      9 C19          1.4570    -0.9770     1.0000 ca         1 FJY       0.326000
     10 C21          4.0690    -0.0790     1.1640 ca         1 FJY      -0.212000
     11 C20          3.6290    -1.1040     2.0250 ca         1 FJY      -0.029000
     12 C18          2.3000    -1.5430     1.9260 ca         1 FJY      -0.175300
     13 C17          1.6170    -2.6270     2.7560 c5         1 FJY       0.002300
     14 C24          2.2890    -4.0040     2.5330 c3         1 FJY      -0.078600
     15 C25          1.6590    -2.2890     4.2670 c3         1 FJY      -0.078600
     16 C16          0.1280    -2.5860     2.1730 c5         1 FJY       0.215800
     17 N2           0.2080    -1.5610     1.0920 nh         1 FJY      -0.846200
     18 C7          -0.9350    -1.0650     0.4230 ca         1 FJY       0.328000
     19 C8          -1.5160     0.1650     0.8120 ca         1 FJY      -0.139300
     20 C11         -0.9560     0.9520     2.0070 c3         1 FJY      -0.045800
     21 C1          -1.5080    -1.7900    -0.6480 ca         1 FJY      -0.093000
     22 C6          -0.9570    -3.0150    -1.0970 ca         1 FJY      -0.051000
     23 C5          -1.5570    -3.7150    -2.1560 ca         1 FJY      -0.152000
     24 C4          -2.7030    -3.1950    -2.7690 ca         1 FJY       0.183000
     25 F1          -3.2820    -3.8670    -3.7880 f          1 FJY      -0.174000
     26 C3          -3.2470    -1.9810    -2.3370 ca         1 FJY      -0.135000
     27 C2          -2.6570    -1.2660    -1.2820 ca         1 FJY       0.297000
     28 N1          -3.2020    -0.0950    -0.9070 nb         1 FJY      -0.665000
     29 C9          -2.6430     0.6260     0.0830 cp         1 FJY       0.437500
     30 C10         -3.3100     1.9350     0.3360 cp         1 FJY      -0.203500
     31 C12         -2.5870     3.1500     0.4210 ca         1 FJY      -0.056000
     32 C13         -3.2900     4.3430     0.6470 ca         1 FJY      -0.171000
     33 C14         -4.6880     4.3010     0.7740 ca         1 FJY       0.344900
     34 N3          -5.3990     3.1550     0.6810 nb         1 FJY      -0.668000
     35 C15         -4.7170     2.0040     0.4600 ca         1 FJY       0.373900
     36 H1           3.1210     3.4680     0.1150 h1         1 FJY       0.046950
     37 H2           1.7730     2.6340    -0.6660 h1         1 FJY       0.046950
     38 H3           2.7070     3.0360    -2.9080 h1         1 FJY       0.053700
     39 H4           2.6570     4.5780    -2.0230 h1         1 FJY       0.053700
     40 H5           4.8670     1.9160    -3.1990 h1         1 FJY       0.053700
     41 H6           6.3240     2.6770    -2.5190 h1         1 FJY       0.053700
     42 H7           5.5180     0.6780    -1.1790 h1         1 FJY       0.046950
     43 H8           5.6270     2.1680    -0.2250 h1         1 FJY       0.046950
     44 H9           1.1810     0.4480    -0.5940 ha         1 FJY       0.125000
     45 H10          5.0930     0.2700     1.2500 ha         1 FJY       0.114000
     46 H11          4.3070    -1.5420     2.7540 ha         1 FJY       0.112000
     47 H12          3.3300    -4.0040     2.8810 hc         1 FJY       0.038700
     48 H13          1.7570    -4.7980     3.0710 hc         1 FJY       0.038700
     49 H14          2.2960    -4.2700     1.4690 hc         1 FJY       0.038700
     50 H15          2.6870    -2.2690     4.6460 hc         1 FJY       0.038700
     51 H16          1.2150    -1.3050     4.4620 hc         1 FJY       0.038700
     52 H17          1.1000    -3.0270     4.8550 hc         1 FJY       0.038700
     53 H18         -0.1780    -3.5660     1.7820 h1         1 FJY       0.049700
     54 H19         -0.5930    -2.2870     2.9470 h1         1 FJY       0.049700
     55 H20         -0.1380     1.6130     1.6960 hc         1 FJY       0.050367
     56 H21         -1.7230     1.5680     2.4900 hc         1 FJY       0.050367
     57 H22         -0.5670     0.2910     2.7910 hc         1 FJY       0.050367
     58 H23         -0.0630    -3.4290    -0.6360 ha         1 FJY       0.135000
     59 H24         -1.1350    -4.6560    -2.5000 ha         1 FJY       0.135000
     60 H25         -4.1310    -1.5860    -2.8260 ha         1 FJY       0.151000
     61 H26         -1.5050     3.1690     0.3020 ha         1 FJY       0.119000
     62 H27         -2.7670     5.2920     0.7190 ha         1 FJY       0.125000
     63 H28         -5.2570     5.2130     0.9490 h4         1 FJY       0.020100
     64 H29         -5.3220     1.1000     0.3940 h4         1 FJY       0.033100
@<TRIPOS>BOND
     1     1     2 1   
     2     1     6 1   
     3     1    36 1   
     4     1    37 1   
     5     2     3 1   
     6     2    38 1   
     7     2    39 1   
     8     3     4 1   
     9     4     5 1   
    10     4    40 1   
    11     4    41 1   
    12     5     6 1   
    13     5    42 1   
    14     5    43 1   
    15     6     7 1   
    16     7     8 ar  
    17     7    10 ar  
    18     8     9 ar  
    19     8    44 1   
    20     9    12 ar  
    21     9    17 1   
    22    10    11 ar  
    23    10    45 1   
    24    11    12 ar  
    25    11    46 1   
    26    12    13 1   
    27    13    14 1   
    28    13    15 1   
    29    13    16 1   
    30    14    47 1   
    31    14    48 1   
    32    14    49 1   
    33    15    50 1   
    34    15    51 1   
    35    15    52 1   
    36    16    17 1   
    37    16    53 1   
    38    16    54 1   
    39    17    18 1   
    40    18    19 ar  
    41    18    21 ar  
    42    19    20 1   
    43    19    29 ar  
    44    20    55 1   
    45    20    56 1   
    46    20    57 1   
    47    21    22 ar  
    48    21    27 ar  
    49    22    23 ar  
    50    22    58 1   
    51    23    24 ar  
    52    23    59 1   
    53    24    25 1   
    54    24    26 ar  
    55    26    27 ar  
    56    26    60 1   
    57    27    28 ar  
    58    28    29 ar  
    59    29    30 1   
    60    30    31 ar  
    61    30    35 ar  
    62    31    32 ar  
    63    31    61 1   
    64    32    33 ar  
    65    32    62 1   
    66    33    34 ar  
    67    33    63 1   
    68    34    35 ar  
    69    35    64 1   
@<TRIPOS>SUBSTRUCTURE
     1 FJY         1 TEMP              0 ****  ****    0 ROOT
