@<TRIPOS>MOLECULE
FJZ
   44    46     1     0     0
SMALL
bcc


@<TRIPOS>ATOM
      1 C1          -3.3500    -1.7540    -0.9470 cc         1 FJZ       0.303200
      2 N1          -4.4270    -2.0250    -1.7470 nc         1 FJZ      -0.670000
      3 S1           1.4460     2.5750    -0.2650 s          1 FJZ      -0.692400
      4 C2          -5.2790    -1.0610    -1.5190 cd         1 FJZ       0.393400
      5 N2          -4.8000    -0.1840    -0.6120 na         1 FJZ      -0.301900
      6 C3          -3.5580    -0.6090    -0.2250 cd         1 FJZ      -0.218900
      7 N3          -0.1430     1.2820     1.4500 n          1 FJZ      -0.411800
      8 C4          -2.7100     0.1410     0.7460 c6         1 FJZ       0.016600
      9 N4           1.8310     0.2350     0.8990 ns         1 FJZ      -0.508900
     10 C5          -1.5440    -0.7140     1.2470 c6         1 FJZ      -0.102900
     11 C6          -2.1940     1.4580     0.1430 c6         1 FJZ      -0.102900
     12 C7          -0.6460     0.1120     2.1590 c6         1 FJZ       0.076500
     13 C8          -1.2410     2.1710     1.0940 c6         1 FJZ       0.076500
     14 C10          3.0900     0.0220     0.2050 c6         1 FJZ       0.109700
     15 C11          4.0160    -0.8110     1.0850 c6         1 FJZ      -0.089900
     16 C12          2.8660    -0.6460    -1.1500 c6         1 FJZ      -0.089900
     17 C13          5.3390    -1.0900     0.3770 c6         1 FJZ      -0.070400
     18 C14          4.1920    -0.9190    -1.8540 c6         1 FJZ      -0.070400
     19 C15          5.1200    -1.7540    -0.9780 c6         1 FJZ      -0.078400
     20 H1          -2.4820    -2.3940    -0.9300 h4         1 FJZ       0.035100
     21 H2          -6.2510    -0.9470    -1.9730 h5         1 FJZ       0.056100
     22 HN2         -5.2860     0.6290    -0.2670 hn         1 FJZ       0.298700
     23 H4          -3.3260     0.3970     1.6180 hc         1 FJZ       0.049700
     24 HN4          1.5100    -0.5600     1.4290 hn         1 FJZ       0.299500
     25 H5          -1.9190    -1.5850     1.7890 hc         1 FJZ       0.060700
     26 H5A         -0.9580    -1.0890     0.4020 hc         1 FJZ       0.060700
     27 H6          -1.6680     1.2520    -0.7950 hc         1 FJZ       0.060700
     28 H6A         -3.0290     2.1210    -0.0940 hc         1 FJZ       0.060700
     29 H7           0.1550    -0.4840     2.5910 h1         1 FJZ       0.069950
     30 H7A         -1.2200     0.4740     3.0160 h1         1 FJZ       0.069950
     31 H8          -1.7570     2.4540     2.0150 h1         1 FJZ       0.069950
     32 H8A         -0.8470     3.0760     0.6440 h1         1 FJZ       0.069950
     33 H10          3.5430     1.0020     0.0420 h1         1 FJZ       0.104700
     34 H11          4.1930    -0.2940     2.0310 hc         1 FJZ       0.046450
     35 H11A         3.5290    -1.7630     1.3290 hc         1 FJZ       0.046450
     36 H12          2.3290    -1.5900    -0.9980 hc         1 FJZ       0.046450
     37 H12A         2.2280    -0.0070    -1.7630 hc         1 FJZ       0.046450
     38 H13          5.8800    -0.1480     0.2380 hc         1 FJZ       0.046200
     39 H13A         5.9680    -1.7180     1.0110 hc         1 FJZ       0.046200
     40 H14          4.0090    -1.4230    -2.8060 hc         1 FJZ       0.046200
     41 H14A         4.6770     0.0320    -2.0960 hc         1 FJZ       0.046200
     42 H15          6.0770    -1.9120    -1.4800 hc         1 FJZ       0.040700
     43 H15A         4.6790    -2.7460    -0.8270 hc         1 FJZ       0.040700
     44 C9           1.0140     1.2830     0.7450 cs         1 FJZ       0.618400
@<TRIPOS>BOND
     1     1     2 1   
     2     1     6 2   
     3     1    20 1   
     4     2     4 2   
     5     3    44 2   
     6     4     5 1   
     7     4    21 1   
     8     5     6 1   
     9     5    22 1   
    10     6     8 1   
    11     7    12 1   
    12     7    13 1   
    13     7    44 1   
    14     8    10 1   
    15     8    11 1   
    16     8    23 1   
    17     9    14 1   
    18     9    24 1   
    19     9    44 1   
    20    10    12 1   
    21    10    25 1   
    22    10    26 1   
    23    11    13 1   
    24    11    27 1   
    25    11    28 1   
    26    12    29 1   
    27    12    30 1   
    28    13    31 1   
    29    13    32 1   
    30    14    15 1   
    31    14    16 1   
    32    14    33 1   
    33    15    17 1   
    34    15    34 1   
    35    15    35 1   
    36    16    18 1   
    37    16    36 1   
    38    16    37 1   
    39    17    19 1   
    40    17    38 1   
    41    17    39 1   
    42    18    19 1   
    43    18    40 1   
    44    18    41 1   
    45    19    42 1   
    46    19    43 1   
@<TRIPOS>SUBSTRUCTURE
     1 FJZ         1 TEMP              0 ****  ****    0 ROOT
