@<TRIPOS>MOLECULE
FJZ
   44    46     1     0     0
SMALL
No Charge or Current Charge


@<TRIPOS>ATOM
      1 C1          -3.9380    -1.6620    -0.8420 cc         1 FJZ       0.237900
      2 N1          -5.1360    -1.9410    -1.4390 nc         1 FJZ      -0.670000
      3 S1           1.5950     2.6180    -0.4200 s          1 FJZ      -0.692400
      4 C2          -5.9710    -0.9810    -1.0640 cd         1 FJZ       0.393400
      5 N2          -5.3230    -0.0880    -0.2320 na         1 FJZ      -0.301500
      6 C3          -4.0140    -0.5190    -0.0880 cd         1 FJZ      -0.204300
      7 N3          -0.1460     1.1110     1.0440 n          1 FJZ      -0.344800
      8 C4          -2.9220     0.1360     0.7380 c6         1 FJZ       0.016600
      9 N4           1.9490     0.2250     0.6990 ns         1 FJZ      -0.441900
     10 C5          -1.7310    -0.8200     1.0250 c6         1 FJZ      -0.102900
     11 C6          -2.4120     1.4240     0.0380 c6         1 FJZ      -0.102900
     12 C7          -0.6180    -0.0860     1.8100 c6         1 FJZ       0.076500
     13 C8          -1.2600     2.0770     0.8410 c6         1 FJZ       0.076500
     14 C10          3.3210     0.0570     0.2050 c6         1 FJZ       0.109700
     15 C11          4.1090    -0.8880     1.1490 c6         1 FJZ      -0.089900
     16 C12          3.3140    -0.5290    -1.2330 c6         1 FJZ      -0.089900
     17 C13          5.5540    -1.1210     0.6400 c6         1 FJZ      -0.070400
     18 C14          4.7530    -0.7620    -1.7570 c6         1 FJZ      -0.070400
     19 C15          5.5540    -1.6810    -0.8030 c6         1 FJZ      -0.078400
     20 H1          -3.0890    -2.3150    -1.0010 h4         1 FJZ       0.035100
     21 H2          -7.0140    -0.8710    -1.3410 h5         1 FJZ       0.056100
     22 HN2         -5.7490     0.7300     0.1870 hn         1 FJZ       0.349000
     23 H4          -3.3530     0.4290     1.7060 hc         1 FJZ       0.049700
     24 HN4          1.5680    -0.5340     1.2450 hn         1 FJZ       0.299500
     25 H5          -2.0770    -1.6920     1.5960 hc         1 FJZ       0.060700
     26 H5A         -1.3090    -1.2000     0.0840 hc         1 FJZ       0.060700
     27 H6          -2.0600     1.1830    -0.9750 hc         1 FJZ       0.060700
     28 H6A         -3.2350     2.1420    -0.0780 hc         1 FJZ       0.060700
     29 H7           0.1890    -0.7910     2.0430 h1         1 FJZ       0.069950
     30 H7A         -1.0210     0.2500     2.7780 h1         1 FJZ       0.069950
     31 H8          -1.6350     2.4040     1.8220 h1         1 FJZ       0.069950
     32 H8A         -0.9200     2.9790     0.3170 h1         1 FJZ       0.069950
     33 H10          3.8200     1.0380     0.1940 h1         1 FJZ       0.104700
     34 H11          4.1410    -0.4610     2.1610 hc         1 FJZ       0.046450
     35 H11A         3.5900    -1.8540     1.2350 hc         1 FJZ       0.046450
     36 H12          2.7590    -1.4780    -1.2470 hc         1 FJZ       0.046450
     37 H12A         2.7820     0.1500    -1.9120 hc         1 FJZ       0.046450
     38 H13          6.1150    -0.1770     0.6720 hc         1 FJZ       0.046200
     39 H13A         6.0780    -1.8170     1.3100 hc         1 FJZ       0.046200
     40 H14          4.7170    -1.2070    -2.7610 hc         1 FJZ       0.046200
     41 H14A         5.2680     0.2030    -1.8630 hc         1 FJZ       0.046200
     42 H15          6.5860    -1.7850    -1.1640 hc         1 FJZ       0.040700
     43 H15A         5.1180    -2.6890    -0.8090 hc         1 FJZ       0.040700
     44 C9           1.1090     1.2820     0.4690 cs         1 FJZ       0.484400
@<TRIPOS>BOND
     1     1     2 1   
     2     1     6 2   
     3     1    20 1   
     4     2     4 2   
     5     3    44 2   
     6     4     5 1   
     7     4    21 1   
     8     5     6 1   
     9     5    22 1   
    10     6     8 1   
    11     7    12 1   
    12     7    13 1   
    13     7    44 1   
    14     8    10 1   
    15     8    11 1   
    16     8    23 1   
    17     9    14 1   
    18     9    24 1   
    19     9    44 1   
    20    10    12 1   
    21    10    25 1   
    22    10    26 1   
    23    11    13 1   
    24    11    27 1   
    25    11    28 1   
    26    12    29 1   
    27    12    30 1   
    28    13    31 1   
    29    13    32 1   
    30    14    15 1   
    31    14    16 1   
    32    14    33 1   
    33    15    17 1   
    34    15    34 1   
    35    15    35 1   
    36    16    18 1   
    37    16    36 1   
    38    16    37 1   
    39    17    19 1   
    40    17    38 1   
    41    17    39 1   
    42    18    19 1   
    43    18    40 1   
    44    18    41 1   
    45    19    42 1   
    46    19    43 1   
@<TRIPOS>SUBSTRUCTURE
     1 FJZ         1 TEMP              0 ****  ****    0 ROOT
