@<TRIPOS>MOLECULE
FK0
   29    31     1     0     0
SMALL
bcc


@<TRIPOS>ATOM
      1 C13          5.5440     6.7120    22.4520 c3         1 FK0       0.116600
      2 C15          5.9600     5.3430    21.9910 ca         1 FK0      -0.149300
      3 C16          7.2930     5.0210    21.7930 ca         1 FK0       0.161900
      4 C19          5.4040     3.0720    21.3460 ca         1 FK0      -0.126000
      5 C01          7.8870     8.6390    26.1860 ca         1 FK0       0.628300
      6 C03          8.4070     9.5550    24.1640 ca         1 FK0       0.924900
      7 C05          6.9140     7.9200    24.2000 ca         1 FK0       0.493800
      8 C06          6.9980     7.7740    25.5910 ca         1 FK0      -0.178200
      9 C08          5.5800     6.3670    24.9530 cc         1 FK0       0.628100
     10 C17          7.7190     3.7710    21.3910 ca         1 FK0      -0.151000
     11 C18          6.7520     2.7990    21.1750 ca         1 FK0       0.014100
     12 C20          5.0260     4.3420    21.7560 ca         1 FK0      -0.077000
     13 F22          8.2180     5.9670    22.0020 f          1 FK0      -0.125900
     14 N02          8.5800     9.5130    25.4950 nb         1 FK0      -0.776000
     15 N04          7.5790     8.7750    23.4600 nb         1 FK0      -0.771000
     16 N07          5.9880     6.9980    23.8030 na         1 FK0      -0.272000
     17 N09          6.1480     6.7890    26.0370 nd         1 FK0      -0.606100
     18 O12          4.6700     5.4270    24.8410 oh         1 FK0      -0.562600
     19 BR           7.2900     1.0750    20.6400 br         1 FK0      -0.080100
     20 CL           8.1180     8.6000    27.8950 cl         1 FK0      -0.135000
     21 H131         5.9590     7.4920    21.8130 h1         1 FK0       0.081200
     22 H132         4.4590     6.8060    22.4010 h1         1 FK0       0.081200
     23 H191         4.6530     2.3140    21.1730 ha         1 FK0       0.154000
     24 H171         8.7740     3.5760    21.2540 ha         1 FK0       0.169000
     25 H201         3.9750     4.5570    21.8980 ha         1 FK0       0.142000
     26 H112         8.8990    10.6540    22.5330 hn         1 FK0       0.438800
     27 H111         9.6100    11.1780    23.9940 hn         1 FK0       0.438800
     28 H121         4.4650     5.0600    25.7120 ho         1 FK0       0.472000
     29 N11          9.1640    10.4390    23.4790 nv         1 FK0      -0.935500
@<TRIPOS>BOND
     1     1     2 1   
     2     1    16 1   
     3     1    21 1   
     4     1    22 1   
     5     2     3 ar  
     6     2    12 ar  
     7     3    10 ar  
     8     3    13 1   
     9     4    11 ar  
    10     4    12 ar  
    11     4    23 1   
    12     5     8 ar  
    13     5    14 ar  
    14     5    20 1   
    15     6    14 ar  
    16     6    15 ar  
    17     6    29 1   
    18     7     8 ar  
    19     7    15 ar  
    20     7    16 1   
    21     8    17 1   
    22     9    16 1   
    23     9    17 2   
    24     9    18 1   
    25    10    11 ar  
    26    10    24 1   
    27    11    19 1   
    28    12    25 1   
    29    18    28 1   
    30    26    29 1   
    31    27    29 1   
@<TRIPOS>SUBSTRUCTURE
     1 FK0         1 TEMP              0 ****  ****    0 ROOT
