@<TRIPOS>MOLECULE
FK0
   29    31     1     0     0
SMALL
No Charge or Current Charge


@<TRIPOS>ATOM
      1 C13          5.1860     6.7240    22.4280 c3         1 FK0       0.145900
      2 C15          5.9670     5.5030    21.9490 ca         1 FK0      -0.149300
      3 C16          6.8870     5.5950    20.8810 ca         1 FK0       0.197000
      4 C19          6.4930     3.1260    22.1580 ca         1 FK0      -0.108000
      5 C01          7.6370     8.4130    26.2570 ca         1 FK0       0.300000
      6 C03          8.6820     8.7180    24.2450 ca         1 FK0       0.398900
      7 C05          6.6500     7.7010    24.1970 ca         1 FK0       0.165500
      8 C06          6.5640     7.8050    25.5710 ca         1 FK0      -0.047600
      9 C08          4.7680     6.8400    24.9750 cc         1 FK0       0.628100
     10 C17          7.6030     4.4640    20.4580 ca         1 FK0      -0.133000
     11 C18          7.4060     3.2300    21.0970 ca         1 FK0       0.014100
     12 C20          5.7750     4.2580    22.5830 ca         1 FK0      -0.059000
     13 F22          7.0940     6.7730    20.2520 f          1 FK0      -0.161000
     14 N02          8.7110     8.8770    25.5820 nb         1 FK0      -0.250000
     15 N04          7.7100     8.1560    23.5020 nb         1 FK0      -0.245000
     16 N07          5.4930     7.0830    23.8210 na         1 FK0      -0.301300
     17 N09          5.3750     7.2640    26.0810 nd         1 FK0      -0.606100
     18 O12          3.5870     6.2330    24.9600 oh         1 FK0      -0.601600
     19 Br           8.3820     1.6900    20.5210 br         1 FK0      -0.080100
     20 Cl           7.6380     8.6000    28.0080 cl         1 FK0      -0.135000
     21 H131         5.3910     7.5940    21.7900 h1         1 FK0       0.081200
     22 H132         4.1110     6.5150    22.3430 h1         1 FK0       0.081200
     23 H191         6.3400     2.1690    22.6530 ha         1 FK0       0.136000
     24 H171         8.3090     4.5490    19.6360 ha         1 FK0       0.151000
     25 H201         5.0690     4.1660    23.4060 ha         1 FK0       0.124000
     26 H112         9.6900     9.2800    22.5560 hn         1 FK0       0.494000
     27 H111        10.4100     9.8030    24.0440 hn         1 FK0       0.494000
     28 H121         3.3490     6.2200    25.9080 ho         1 FK0       0.511000
     29 N11          9.7580     9.1840    23.5660 nv         1 FK0      -1.045900
@<TRIPOS>BOND
     1     1     2 1   
     2     1    16 1   
     3     1    21 1   
     4     1    22 1   
     5     2     3 ar  
     6     2    12 ar  
     7     3    10 ar  
     8     3    13 1   
     9     4    11 ar  
    10     4    12 ar  
    11     4    23 1   
    12     5     8 ar  
    13     5    14 ar  
    14     5    20 1   
    15     6    14 ar  
    16     6    15 ar  
    17     6    29 1   
    18     7     8 ar  
    19     7    15 ar  
    20     7    16 1   
    21     8    17 1   
    22     9    16 1   
    23     9    17 2   
    24     9    18 1   
    25    10    11 ar  
    26    10    24 1   
    27    11    19 1   
    28    12    25 1   
    29    18    28 1   
    30    26    29 1   
    31    27    29 1   
@<TRIPOS>SUBSTRUCTURE
     1 FK0         1 TEMP              0 ****  ****    0 ROOT
