@<TRIPOS>MOLECULE
FK1
   16    17     1     0     0
SMALL
No Charge or Current Charge


@<TRIPOS>ATOM
      1 C           -0.5730     0.1890    -0.0340 ca         1 FK1       0.002100
      2 N            2.7960    -1.4350    -0.0320 na         1 FK1      -0.221700
      3 Br          -2.4480    -0.1850    -0.0480 br         1 FK1      -0.109100
      4 C1          -0.1250     1.5320    -0.0180 ca         1 FK1      -0.120000
      5 C2           1.2570     1.8190    -0.0080 ca         1 FK1      -0.058000
      6 C3           2.1470     0.7370    -0.0140 ca         1 FK1      -0.090800
      7 C4           3.5760     0.7100    -0.0070 cc         1 FK1      -0.239200
      8 C5           3.9600    -0.6260    -0.0180 cd         1 FK1      -0.157100
      9 C6           1.7190    -0.5610    -0.0290 ca         1 FK1      -0.053200
     10 C7           0.3530    -0.8760    -0.0400 ca         1 FK1      -0.100000
     11 HN           2.7570    -2.4510    -0.0430 hn         1 FK1       0.351000
     12 H1          -0.8470     2.3450    -0.0140 ha         1 FK1       0.127000
     13 H2           1.6180     2.8450     0.0050 ha         1 FK1       0.119000
     14 H4           4.2510     1.5640     0.0060 ha         1 FK1       0.208000
     15 H5           4.9600    -1.0560    -0.0170 h4         1 FK1       0.213000
     16 H7           0.0150    -1.9100    -0.0520 ha         1 FK1       0.128000
@<TRIPOS>BOND
     1     1     3 1   
     2     1     4 ar  
     3     1    10 ar  
     4     2     8 1   
     5     2     9 1   
     6     2    11 1   
     7     4     5 ar  
     8     4    12 1   
     9     5     6 ar  
    10     5    13 1   
    11     6     7 1   
    12     6     9 ar  
    13     7     8 2   
    14     7    14 1   
    15     8    15 1   
    16     9    10 ar  
    17    10    16 1   
@<TRIPOS>SUBSTRUCTURE
     1 FK1         1 TEMP              0 ****  ****    0 ROOT
