@<TRIPOS>MOLECULE
FK1
   16    17     1     0     0
SMALL
bcc


@<TRIPOS>ATOM
      1 C           -0.5350     0.1780    -0.0340 ca         1 FK1       0.002100
      2 N            2.7910    -1.3820    -0.0330 na         1 FK1      -0.171400
      3 BR          -2.3950    -0.1780    -0.0470 br         1 FK1      -0.109100
      4 C1          -0.1110     1.5160    -0.0180 ca         1 FK1      -0.138000
      5 C2           1.2380     1.8100    -0.0080 ca         1 FK1      -0.076000
      6 C3           2.1710     0.7680    -0.0130 ca         1 FK1      -0.090800
      7 C4           3.5980     0.7020    -0.0060 cc         1 FK1      -0.189200
      8 C5           3.9260    -0.6230    -0.0180 cd         1 FK1      -0.107100
      9 C6           1.7010    -0.5650    -0.0300 ca         1 FK1      -0.053200
     10 C7           0.3440    -0.8840    -0.0410 ca         1 FK1      -0.118000
     11 HN           2.7700    -2.3880    -0.0400 hn         1 FK1       0.300700
     12 H1          -0.8360     2.3180    -0.0130 ha         1 FK1       0.145000
     13 H2           1.5620     2.8440     0.0040 ha         1 FK1       0.137000
     14 H4           4.2890     1.5290     0.0050 ha         1 FK1       0.158000
     15 H5           4.8960    -1.0930    -0.0180 h4         1 FK1       0.163000
     16 H7           0.0080    -1.9120    -0.0530 ha         1 FK1       0.146000
@<TRIPOS>BOND
     1     1     3 1   
     2     1     4 ar  
     3     1    10 ar  
     4     2     8 1   
     5     2     9 1   
     6     2    11 1   
     7     4     5 ar  
     8     4    12 1   
     9     5     6 ar  
    10     5    13 1   
    11     6     7 1   
    12     6     9 ar  
    13     7     8 2   
    14     7    14 1   
    15     8    15 1   
    16     9    10 ar  
    17    10    16 1   
@<TRIPOS>SUBSTRUCTURE
     1 FK1         1 TEMP              0 ****  ****    0 ROOT
