@<TRIPOS>MOLECULE
FK2
    9     8     1     0     0
SMALL
No Charge or Current Charge


@<TRIPOS>ATOM
      1 C1           0.3100     0.8550    -0.0190 c3         1 FK2      -0.351400
      2 C2           1.3350    -0.0590     0.6100 c          1 FK2       0.625900
      3 O1           2.0790    -0.7880    -0.0410 o          1 FK2      -0.597100
      4 C           -0.9160    -0.0070    -0.1720 c          1 FK2       0.734000
      5 O           -1.0680    -0.6110    -1.2210 o          1 FK2      -0.727000
      6 O2          -1.6610    -0.1070     0.7880 o          1 FK2      -0.727000
      7 H1           0.1170     1.6370     0.7250 hc         1 FK2       0.042700
      8 H2           0.7000     1.1700    -0.9930 hc         1 FK2       0.042700
      9 H3           1.3850    -0.0360     1.7210 h4         1 FK2      -0.041800
@<TRIPOS>BOND
     1     1     2 1   
     2     1     4 1   
     3     1     7 1   
     4     1     8 1   
     5     2     3 2   
     6     2     9 1   
     7     4     5 1   
     8     4     6 1   
@<TRIPOS>SUBSTRUCTURE
     1 FK2         1 TEMP              0 ****  ****    0 ROOT
