@<TRIPOS>MOLECULE
FK2
    9     8     1     0     0
SMALL
abcg2


@<TRIPOS>ATOM
      1 C1           0.2840     0.8160     0.1850 c3         1 FK2      -0.351400
      2 C2           1.4610    -0.0910     0.2990 c          1 FK2       0.625900
      3 O1           2.3400    -0.1990    -0.5250 o          1 FK2      -0.597100
      4 C           -1.0000    -0.0300    -0.0300 c          1 FK2       0.734000
      5 O           -0.8170    -1.2560    -0.1590 o          1 FK2      -0.727000
      6 O2          -2.0750     0.5860    -0.0650 o          1 FK2      -0.727000
      7 H1           0.1830     1.3980     1.1070 hc         1 FK2       0.042700
      8 H2           0.4110     1.5190    -0.6410 hc         1 FK2       0.042700
      9 H3           1.4920    -0.6890     1.2270 h4         1 FK2      -0.041800
@<TRIPOS>BOND
     1     1     2 1   
     2     1     4 1   
     3     1     7 1   
     4     1     8 1   
     5     2     3 2   
     6     2     9 1   
     7     4     5 1   
     8     4     6 1   
@<TRIPOS>SUBSTRUCTURE
     1 FK2         1 TEMP              0 ****  ****    0 ROOT
