@<TRIPOS>MOLECULE
FK3
   54    56     1     0     0
SMALL
abcg2


@<TRIPOS>ATOM
      1 CAV         18.6180    12.5890    -2.5860 c          1 FK3       0.606900
      2 OBT         18.1630    12.1970    -3.6610 o          1 FK3      -0.610100
      3 N           17.8870    12.8190    -1.4920 n          1 FK3      -0.404800
      4 CD1         18.4040    13.3090    -0.2140 c5         1 FK3       0.114000
      5 CG          17.4400    12.7130     0.8070 c5         1 FK3      -0.081700
      6 CD2         17.7580    11.2610     1.2590 c5         1 FK3      -0.072400
      7 CBF         16.6300    10.3720     0.7030 c5         1 FK3      -0.080400
      8 CBE         15.4380    11.3260     0.5570 c5         1 FK3      -0.077400
      9 CB          16.0810    12.6220     0.0610 c5         1 FK3      -0.073700
     10 CA          16.4570    12.5660    -1.4500 c5         1 FK3       0.027700
     11 C           15.6620    13.6060    -2.2350 c          1 FK3       0.594100
     12 O           16.0430    14.7660    -2.3560 o          1 FK3      -0.591100
     13 NAE         14.4820    13.1460    -2.7010 ns         1 FK3      -0.516900
     14 CAH         13.4930    13.9790    -3.3710 c3         1 FK3       0.079700
     15 CAJ         13.4040    13.6860    -4.8730 c3         1 FK3      -0.088400
     16 CAK         12.9840    12.2660    -5.2530 c3         1 FK3      -0.077400
     17 CAL         12.9470    12.0730    -6.7670 c3         1 FK3      -0.088100
     18 CAI         12.1580    13.8250    -2.6170 c3         1 FK3       0.079300
     19 OBR         12.2760    14.2350    -1.2570 oh         1 FK3      -0.654000
     20 CAM         11.0160    14.6050    -3.2700 c          1 FK3       0.618100
     21 OBS         10.1180    13.9890    -3.8470 o          1 FK3      -0.609100
     22 NAA         11.0080    15.9500    -3.2020 ns         1 FK3      -0.469900
     23 CAN         12.0000    16.8400    -2.6550 cx         1 FK3       0.053700
     24 CAP         11.9190    18.2760    -3.0630 cx         1 FK3      -0.144400
     25 CAO         13.0600    17.4230    -3.5540 cx         1 FK3      -0.144400
     26 H1          19.6920    12.7770    -2.4380 h5         1 FK3       0.018200
     27 H2          19.4370    12.9930    -0.0760 h1         1 FK3       0.057200
     28 H3          18.3650    14.4010    -0.1910 h1         1 FK3       0.057200
     29 H4          17.3630    13.3710     1.6710 hc         1 FK3       0.068700
     30 H5          18.7420    10.9380     0.9160 hc         1 FK3       0.047200
     31 H6          17.7670    11.2170     2.3490 hc         1 FK3       0.047200
     32 H7          16.4100     9.5180     1.3450 hc         1 FK3       0.049200
     33 H8          16.9100     9.9760    -0.2770 hc         1 FK3       0.049200
     34 H9          14.9770    11.5050     1.5320 hc         1 FK3       0.049200
     35 H10         14.6610    10.9550    -0.1140 hc         1 FK3       0.049200
     36 H11         15.4550    13.4940     0.2510 hc         1 FK3       0.069700
     37 H12         16.2590    11.5780    -1.8670 h1         1 FK3       0.076700
     38 H13         14.2980    12.1570    -2.6210 hn         1 FK3       0.313500
     39 H14         13.8360    15.0020    -3.2400 h1         1 FK3       0.095700
     40 H15         14.3860    13.9000    -5.3040 hc         1 FK3       0.057200
     41 H16         12.7090    14.4030    -5.3200 hc         1 FK3       0.057200
     42 H17         11.9980    12.0460    -4.8370 hc         1 FK3       0.040700
     43 H18         13.6800    11.5460    -4.8130 hc         1 FK3       0.040700
     44 H19         12.6530    11.0550    -7.0300 hc         1 FK3       0.035033
     45 H20         12.2330    12.7590    -7.2300 hc         1 FK3       0.035033
     46 H21         13.9280    12.2650    -7.2100 hc         1 FK3       0.035033
     47 H22         11.8450    12.7790    -2.6580 h1         1 FK3       0.062700
     48 H23         13.0230    13.7560    -0.8710 ho         1 FK3       0.450000
     49 H24         10.2060    16.3780    -3.6440 hn         1 FK3       0.316500
     50 H25         12.2790    16.6170    -1.6370 h1         1 FK3       0.109700
     51 H26         12.1140    19.0240    -2.3070 hc         1 FK3       0.080450
     52 H27         11.1550    18.5430    -3.7820 hc         1 FK3       0.080450
     53 H28         13.0430    17.1180    -4.5910 hc         1 FK3       0.080450
     54 H29         14.0450    17.5770    -3.1330 hc         1 FK3       0.080450
@<TRIPOS>BOND
     1     1     2 2   
     2     1     3 1   
     3     1    26 1   
     4     3     4 1   
     5     3    10 1   
     6     4     5 1   
     7     4    27 1   
     8     4    28 1   
     9     5     6 1   
    10     5     9 1   
    11     5    29 1   
    12     6     7 1   
    13     6    30 1   
    14     6    31 1   
    15     7     8 1   
    16     7    32 1   
    17     7    33 1   
    18     8     9 1   
    19     8    34 1   
    20     8    35 1   
    21     9    10 1   
    22     9    36 1   
    23    10    11 1   
    24    10    37 1   
    25    11    12 2   
    26    11    13 1   
    27    13    14 1   
    28    13    38 1   
    29    14    15 1   
    30    14    18 1   
    31    14    39 1   
    32    15    16 1   
    33    15    40 1   
    34    15    41 1   
    35    16    17 1   
    36    16    42 1   
    37    16    43 1   
    38    17    44 1   
    39    17    45 1   
    40    17    46 1   
    41    18    19 1   
    42    18    20 1   
    43    18    47 1   
    44    19    48 1   
    45    20    21 2   
    46    20    22 1   
    47    22    23 1   
    48    22    49 1   
    49    23    24 1   
    50    23    25 1   
    51    23    50 1   
    52    24    25 1   
    53    24    51 1   
    54    24    52 1   
    55    25    53 1   
    56    25    54 1   
@<TRIPOS>SUBSTRUCTURE
     1 FK3         1 TEMP              0 ****  ****    0 ROOT
