@<TRIPOS>MOLECULE
FK3
   54    56     1     0     0
SMALL
No Charge or Current Charge


@<TRIPOS>ATOM
      1 CAV         18.6840    12.5880    -2.6870 c          1 FK3       0.606900
      2 OBT         18.1760    12.3170    -3.7700 o          1 FK3      -0.610100
      3 N           17.9510    12.6000    -1.4910 n          1 FK3      -0.404800
      4 CD1         18.5490    13.0360    -0.2220 c5         1 FK3       0.114000
      5 CG          17.5150    12.5550     0.8380 c5         1 FK3      -0.081700
      6 CD2         17.8190    11.0590     1.2220 c5         1 FK3      -0.072400
      7 CBF         16.7510    10.2220     0.4660 c5         1 FK3      -0.080400
      8 CBE         15.5250    11.1740     0.5100 c5         1 FK3      -0.077400
      9 CB          16.1460    12.5410     0.0880 c5         1 FK3      -0.073700
     10 CA          16.4690    12.4860    -1.4550 c5         1 FK3       0.027700
     11 C           15.7190    13.6600    -2.1620 c          1 FK3       0.594100
     12 O           16.1740    14.7470    -2.4940 o          1 FK3      -0.591100
     13 NAE         14.4050    13.2900    -2.3850 ns         1 FK3      -0.516900
     14 CAH         13.4190    14.1090    -3.1080 c3         1 FK3       0.079700
     15 CAJ         13.4810    13.8040    -4.6290 c3         1 FK3      -0.088400
     16 CAK         13.1190    12.3510    -5.0250 c3         1 FK3      -0.077400
     17 CAL         13.2170    12.1030    -6.5420 c3         1 FK3      -0.088100
     18 CAI         12.0040    13.9650    -2.4690 c3         1 FK3       0.079300
     19 OBR         12.0410    14.3870    -1.0790 oh         1 FK3      -0.654000
     20 CAM         10.8520    14.6500    -3.2920 c          1 FK3       0.618100
     21 OBS          9.9440    13.9940    -3.7850 o          1 FK3      -0.609100
     22 NAA         10.8300    16.0250    -3.4490 ns         1 FK3      -0.469900
     23 CAN         11.7750    16.9740    -2.9250 cx         1 FK3       0.053700
     24 CAP         11.6500    18.4010    -3.4010 cx         1 FK3      -0.144400
     25 CAO         12.7990    17.5460    -3.8760 cx         1 FK3      -0.144400
     26 H1          19.7530    12.8350    -2.5460 h5         1 FK3       0.018200
     27 H2          19.5510    12.6150    -0.0630 h1         1 FK3       0.057200
     28 H3          18.6380    14.1300    -0.2090 h1         1 FK3       0.057200
     29 H4          17.5110    13.1990     1.7250 hc         1 FK3       0.068700
     30 H5          18.8380    10.7380     0.9790 hc         1 FK3       0.047200
     31 H6          17.7050    10.9220     2.3030 hc         1 FK3       0.047200
     32 H7          16.5510     9.2670     0.9640 hc         1 FK3       0.049200
     33 H8          17.0690     9.9840    -0.5550 hc         1 FK3       0.049200
     34 H9          15.1050    11.2290     1.5220 hc         1 FK3       0.049200
     35 H10         14.7150    10.8470    -0.1520 hc         1 FK3       0.049200
     36 H11         15.5120    13.3940     0.3610 hc         1 FK3       0.069700
     37 H12         16.1470    11.5490    -1.9290 h1         1 FK3       0.076700
     38 H13         14.1420    12.3530    -2.1020 hn         1 FK3       0.313500
     39 H14         13.7210    15.1570    -2.9870 h1         1 FK3       0.095700
     40 H15         14.4980    14.0200    -4.9820 hc         1 FK3       0.057200
     41 H16         12.8260    14.4990    -5.1680 hc         1 FK3       0.057200
     42 H17         12.0980    12.1190    -4.6990 hc         1 FK3       0.040700
     43 H18         13.7870    11.6490    -4.5100 hc         1 FK3       0.040700
     44 H19         12.9530    11.0650    -6.7780 hc         1 FK3       0.035033
     45 H20         12.5330    12.7640    -7.0890 hc         1 FK3       0.035033
     46 H21         14.2370    12.2870    -6.9000 hc         1 FK3       0.035033
     47 H22         11.7590    12.8950    -2.4940 h1         1 FK3       0.062700
     48 H23         12.8500    13.9960    -0.6810 ho         1 FK3       0.450000
     49 H24         10.0400    16.3730    -3.9790 hn         1 FK3       0.316500
     50 H25         12.0560    16.8210    -1.8810 h1         1 FK3       0.109700
     51 H26         11.8680    19.1910    -2.6870 hc         1 FK3       0.080450
     52 H27         10.8660    18.6380    -4.1160 hc         1 FK3       0.080450
     53 H28         12.7850    17.2040    -4.9080 hc         1 FK3       0.080450
     54 H29         13.7890    17.7610    -3.4810 hc         1 FK3       0.080450
@<TRIPOS>BOND
     1     1     2 2   
     2     1     3 1   
     3     1    26 1   
     4     3     4 1   
     5     3    10 1   
     6     4     5 1   
     7     4    27 1   
     8     4    28 1   
     9     5     6 1   
    10     5     9 1   
    11     5    29 1   
    12     6     7 1   
    13     6    30 1   
    14     6    31 1   
    15     7     8 1   
    16     7    32 1   
    17     7    33 1   
    18     8     9 1   
    19     8    34 1   
    20     8    35 1   
    21     9    10 1   
    22     9    36 1   
    23    10    11 1   
    24    10    37 1   
    25    11    12 2   
    26    11    13 1   
    27    13    14 1   
    28    13    38 1   
    29    14    15 1   
    30    14    18 1   
    31    14    39 1   
    32    15    16 1   
    33    15    40 1   
    34    15    41 1   
    35    16    17 1   
    36    16    42 1   
    37    16    43 1   
    38    17    44 1   
    39    17    45 1   
    40    17    46 1   
    41    18    19 1   
    42    18    20 1   
    43    18    47 1   
    44    19    48 1   
    45    20    21 2   
    46    20    22 1   
    47    22    23 1   
    48    22    49 1   
    49    23    24 1   
    50    23    25 1   
    51    23    50 1   
    52    24    25 1   
    53    24    51 1   
    54    24    52 1   
    55    25    53 1   
    56    25    54 1   
@<TRIPOS>SUBSTRUCTURE
     1 FK3         1 TEMP              0 ****  ****    0 ROOT
