@<TRIPOS>MOLECULE
FK8
   20    20     1     0     0
SMALL
No Charge or Current Charge


@<TRIPOS>ATOM
      1 C1           2.8240     0.0150    -0.0330 c          1 FK8       0.641100
      2 C3          -0.8230     0.0150     0.4140 ca         1 FK8      -0.101300
      3 C5          -2.8340     1.2200    -0.2690 ca         1 FK8      -0.116000
      4 C7          -2.8300    -1.2120    -0.2400 ca         1 FK8      -0.116000
      5 C4          -1.4990     1.2280     0.1740 ca         1 FK8      -0.085000
      6 C2           0.6230     0.0240     0.8950 c3         1 FK8       0.231900
      7 C6          -3.5000     0.0000    -0.4760 ca         1 FK8      -0.098000
      8 C8          -1.4950    -1.2050     0.2030 ca         1 FK8      -0.085000
      9 N1           3.4800     0.0020    -1.2000 nt         1 FK8      -0.603000
     10 O1           3.3770     0.0300     1.0520 o          1 FK8      -0.549000
     11 O2           1.4850     0.0100    -0.2550 os         1 FK8      -0.462100
     12 H1          -3.3510     2.1600    -0.4530 ha         1 FK8       0.114000
     13 H2          -3.3440    -2.1570    -0.4010 ha         1 FK8       0.114000
     14 H3          -0.9900     2.1770     0.3290 ha         1 FK8       0.115000
     15 H4           0.8010     0.9190     1.5050 h1         1 FK8       0.055700
     16 H5           0.8030    -0.8560     1.5280 h1         1 FK8       0.055700
     17 H6          -4.5320    -0.0050    -0.8190 ha         1 FK8       0.113000
     18 H7          -0.9830    -2.1480     0.3800 ha         1 FK8       0.115000
     19 H8           4.4880     0.0030    -1.2050 hn         1 FK8       0.329500
     20 H9           2.9550    -0.0100    -2.0600 hn         1 FK8       0.329500
@<TRIPOS>BOND
     1     1     9 1   
     2     1    10 2   
     3     1    11 1   
     4     2     5 ar  
     5     2     6 1   
     6     2     8 ar  
     7     3     5 ar  
     8     3     7 ar  
     9     3    12 1   
    10     4     7 ar  
    11     4     8 ar  
    12     4    13 1   
    13     5    14 1   
    14     6    11 1   
    15     6    15 1   
    16     6    16 1   
    17     7    17 1   
    18     8    18 1   
    19     9    19 1   
    20     9    20 1   
@<TRIPOS>SUBSTRUCTURE
     1 FK8         1 TEMP              0 ****  ****    0 ROOT
