@<TRIPOS>MOLECULE
FK8
   20    20     1     0     0
SMALL
abcg2


@<TRIPOS>ATOM
      1 C1           2.7560     0.0150    -0.0510 c          1 FK8       0.641100
      2 C3          -0.8170     0.0020     0.4470 ca         1 FK8      -0.101300
      3 C5          -2.7730     1.2050    -0.3010 ca         1 FK8      -0.116000
      4 C7          -2.8030    -1.1970    -0.2240 ca         1 FK8      -0.116000
      5 C4          -1.4670     1.2020     0.1690 ca         1 FK8      -0.085000
      6 C2           0.6040     0.0010     0.9210 c3         1 FK8       0.231900
      7 C6          -3.4430     0.0050    -0.4990 ca         1 FK8      -0.098000
      8 C8          -1.4960    -1.1960     0.2460 ca         1 FK8      -0.085000
      9 N1           3.4150     0.0140    -1.2200 nt         1 FK8      -0.603000
     10 O1           3.2770     0.0020     1.0470 o          1 FK8      -0.549000
     11 O2           1.4320     0.0220    -0.2460 os         1 FK8      -0.462100
     12 H1          -3.2680     2.1450    -0.5090 ha         1 FK8       0.114000
     13 H2          -3.3220    -2.1350    -0.3730 ha         1 FK8       0.114000
     14 H3          -0.9510     2.1420     0.3280 ha         1 FK8       0.115000
     15 H4           0.8060     0.8770     1.5430 h1         1 FK8       0.055700
     16 H5           0.8130    -0.8910     1.5160 h1         1 FK8       0.055700
     17 H6          -4.4620     0.0060    -0.8640 ha         1 FK8       0.113000
     18 H7          -1.0030    -2.1360     0.4630 ha         1 FK8       0.115000
     19 H8           4.4190     0.0550    -1.2210 hn         1 FK8       0.329500
     20 H9           2.9390     0.0720    -2.1030 hn         1 FK8       0.329500
@<TRIPOS>BOND
     1     1     9 1   
     2     1    10 2   
     3     1    11 1   
     4     2     5 ar  
     5     2     6 1   
     6     2     8 ar  
     7     3     5 ar  
     8     3     7 ar  
     9     3    12 1   
    10     4     7 ar  
    11     4     8 ar  
    12     4    13 1   
    13     5    14 1   
    14     6    11 1   
    15     6    15 1   
    16     6    16 1   
    17     7    17 1   
    18     8    18 1   
    19     9    19 1   
    20     9    20 1   
@<TRIPOS>SUBSTRUCTURE
     1 FK8         1 TEMP              0 ****  ****    0 ROOT
