@<TRIPOS>MOLECULE
FK9
   43    43     1     0     0
SMALL
bcc


@<TRIPOS>ATOM
      1 O6          -1.9030     3.3690     0.8380 oh         1 FK9      -0.593800
      2 C6          -3.0360     2.6750     0.3720 c3         1 FK9       0.145400
      3 C5          -2.6280     1.2660    -0.0040 c6         1 FK9       0.149100
      4 O5          -2.1880     0.6280     1.1830 os         1 FK9      -0.409600
      5 C4          -3.7880     0.4920    -0.6330 c6         1 FK9       0.124100
      6 O4          -4.0990     1.1100    -1.8600 oh         1 FK9      -0.601800
      7 C3          -3.3790    -0.9630    -0.8390 c6         1 FK9       0.120100
      8 O3          -4.4900    -1.6430    -1.3740 oh         1 FK9      -0.590800
      9 C2          -2.8890    -1.5740     0.4700 c6         1 FK9       0.100100
     10 O2          -3.9710    -1.6350     1.3640 oh         1 FK9      -0.568800
     11 C1          -1.7720    -0.6980     1.0460 c6         1 FK9       0.308900
     12 O1          -0.6600    -0.8380     0.2230 os         1 FK9      -0.443600
     13 C7           0.5200    -0.2200     0.6990 c3         1 FK9       0.143400
     14 C8           1.6950    -0.7590    -0.0960 c3         1 FK9      -0.072400
     15 C9           2.9990    -0.1230     0.3640 c3         1 FK9       0.018700
     16 C13          5.7690     0.0950     0.1580 c3         1 FK9       0.020700
     17 C14          7.0870    -0.3890    -0.4290 c3         1 FK9      -0.066400
     18 C15          8.2730     0.3630     0.1600 c3         1 FK9      -0.089100
     19 S1           4.3840    -0.8200    -0.5770 ss         1 FK9      -0.353200
     20 H6          -2.1750     4.2630     1.0590 ho         1 FK9       0.403000
     21 H61C        -3.8250     2.6230     1.1340 h1         1 FK9       0.036700
     22 H62C        -3.4710     3.1570    -0.5100 h1         1 FK9       0.036700
     23 H5          -1.8120     1.3220    -0.7400 h1         1 FK9       0.066700
     24 H4          -4.6490     0.5270     0.0510 h1         1 FK9       0.068700
     25 H1          -1.5320    -1.0220     2.0700 h2         1 FK9       0.064700
     26 HA          -4.7790     0.5820    -2.2910 ho         1 FK9       0.423000
     27 H3          -2.5390    -0.9750    -1.5470 h1         1 FK9       0.061700
     28 HB          -4.1870    -2.4590    -1.7840 ho         1 FK9       0.409000
     29 H2          -2.4780    -2.5740     0.2720 h1         1 FK9       0.048700
     30 HC          -3.7060    -2.1490     2.1330 ho         1 FK9       0.404000
     31 H71C         0.4620     0.8700     0.5940 h1         1 FK9       0.036700
     32 H72C         0.6570    -0.4360     1.7670 h1         1 FK9       0.036700
     33 H81C         1.7490    -1.8430     0.0270 hc         1 FK9       0.063700
     34 H82C         1.5420    -0.5570    -1.1590 hc         1 FK9       0.063700
     35 H91C         2.9720     0.9590     0.2160 h1         1 FK9       0.057200
     36 H92C         3.1610    -0.3100     1.4290 h1         1 FK9       0.057200
     37 H151         9.2120     0.0090    -0.2660 hc         1 FK9       0.034367
     38 H152         8.2020     1.4330    -0.0380 hc         1 FK9       0.034367
     39 H153         8.3280     0.2300     1.2420 hc         1 FK9       0.034367
     40 H141         7.1980    -1.4600    -0.2410 hc         1 FK9       0.052200
     41 H142         7.0740    -0.2620    -1.5140 hc         1 FK9       0.052200
     42 H131         5.7570    -0.0540     1.2400 h1         1 FK9       0.055700
     43 H132         5.6360     1.1630    -0.0320 h1         1 FK9       0.055700
@<TRIPOS>BOND
     1     1     2 1   
     2     1    20 1   
     3     2     3 1   
     4     2    21 1   
     5     2    22 1   
     6     3     4 1   
     7     3     5 1   
     8     3    23 1   
     9     4    11 1   
    10     5     6 1   
    11     5     7 1   
    12     5    24 1   
    13     6    26 1   
    14     7     8 1   
    15     7     9 1   
    16     7    27 1   
    17     8    28 1   
    18     9    10 1   
    19     9    11 1   
    20     9    29 1   
    21    10    30 1   
    22    11    12 1   
    23    11    25 1   
    24    12    13 1   
    25    13    14 1   
    26    13    31 1   
    27    13    32 1   
    28    14    15 1   
    29    14    33 1   
    30    14    34 1   
    31    15    19 1   
    32    15    35 1   
    33    15    36 1   
    34    16    17 1   
    35    16    19 1   
    36    16    42 1   
    37    16    43 1   
    38    17    18 1   
    39    17    40 1   
    40    17    41 1   
    41    18    37 1   
    42    18    38 1   
    43    18    39 1   
@<TRIPOS>SUBSTRUCTURE
     1 FK9         1 TEMP              0 ****  ****    0 ROOT
