@<TRIPOS>MOLECULE
FK9
   43    43     1     0     0
SMALL
No Charge or Current Charge


@<TRIPOS>ATOM
      1 O6          -1.6660     3.3680     0.9090 oh         1 FK9      -0.716000
      2 C6          -2.7430     2.7170     0.2010 c3         1 FK9       0.168600
      3 C5          -2.4860     1.1960    -0.0650 c6         1 FK9       0.172300
      4 O5          -2.2320     0.5430     1.2120 os         1 FK9      -0.456000
      5 C4          -3.6860     0.5110    -0.7920 c6         1 FK9       0.147300
      6 O4          -3.9330     1.0850    -2.0930 oh         1 FK9      -0.724000
      7 C3          -3.4130    -1.0190    -0.9340 c6         1 FK9       0.143300
      8 O3          -4.5530    -1.6740    -1.5220 oh         1 FK9      -0.653000
      9 C2          -3.0990    -1.6520     0.4540 c6         1 FK9       0.123300
     10 O2          -4.3060    -1.6360     1.2640 oh         1 FK9      -0.691000
     11 C1          -1.9120    -0.8640     1.1160 c6         1 FK9       0.355300
     12 O1          -0.6970    -1.0240     0.3580 os         1 FK9      -0.490000
     13 C7           0.4980    -0.4890     0.9490 c3         1 FK9       0.166600
     14 C8           1.6610    -0.7730    -0.0180 c3         1 FK9      -0.072400
     15 C9           3.0080    -0.2390     0.5030 c3         1 FK9       0.066600
     16 C13          5.7950     0.1360     0.1910 c3         1 FK9       0.068600
     17 C14          7.0900    -0.0440    -0.6240 c3         1 FK9      -0.066400
     18 C15          8.3250     0.5610     0.0700 c3         1 FK9      -0.089100
     19 S1           4.3600    -0.6130    -0.7020 ss         1 FK9      -0.449000
     20 H6          -1.9550     4.2940     1.0850 ho         1 FK9       0.502000
     21 H61C        -3.6780     2.8090     0.7710 h1         1 FK9       0.036700
     22 H62C        -2.9040     3.2120    -0.7660 h1         1 FK9       0.036700
     23 H5          -1.5890     1.1140    -0.6950 h1         1 FK9       0.066700
     24 H4          -4.5760     0.6420    -0.1580 h1         1 FK9       0.068700
     25 H1          -1.7500    -1.2640     2.1280 h2         1 FK9       0.064700
     26 HA          -4.4630     0.4050    -2.5760 ho         1 FK9       0.522000
     27 H3          -2.5320    -1.1540    -1.5810 h1         1 FK9       0.061700
     28 HB          -5.1060    -1.9360    -0.7490 ho         1 FK9       0.448000
     29 H2          -2.7710    -2.6900     0.2970 h1         1 FK9       0.048700
     30 HC          -4.0890    -2.0560     2.1290 ho         1 FK9       0.503000
     31 H71C         0.4080     0.5950     1.1030 h1         1 FK9       0.036700
     32 H72C         0.6990    -0.9630     1.9190 h1         1 FK9       0.036700
     33 H81C         1.7390    -1.8550    -0.1780 hc         1 FK9       0.063700
     34 H82C         1.4420    -0.3130    -0.9880 hc         1 FK9       0.063700
     35 H91C         2.9470     0.8480     0.6480 h1         1 FK9       0.057200
     36 H92C         3.2460    -0.7070     1.4670 h1         1 FK9       0.057200
     37 H151         9.2210     0.4100    -0.5430 hc         1 FK9       0.034367
     38 H152         8.1940     1.6380     0.2260 hc         1 FK9       0.034367
     39 H153         8.4940     0.0870     1.0450 hc         1 FK9       0.034367
     40 H141         7.2630    -1.1140    -0.7960 hc         1 FK9       0.052200
     41 H142         6.9660     0.4240    -1.6080 hc         1 FK9       0.052200
     42 H131         5.9020    -0.3490     1.1710 h1         1 FK9       0.055700
     43 H132         5.6010     1.2050     0.3510 h1         1 FK9       0.055700
@<TRIPOS>BOND
     1     1     2 1   
     2     1    20 1   
     3     2     3 1   
     4     2    21 1   
     5     2    22 1   
     6     3     4 1   
     7     3     5 1   
     8     3    23 1   
     9     4    11 1   
    10     5     6 1   
    11     5     7 1   
    12     5    24 1   
    13     6    26 1   
    14     7     8 1   
    15     7     9 1   
    16     7    27 1   
    17     8    28 1   
    18     9    10 1   
    19     9    11 1   
    20     9    29 1   
    21    10    30 1   
    22    11    12 1   
    23    11    25 1   
    24    12    13 1   
    25    13    14 1   
    26    13    31 1   
    27    13    32 1   
    28    14    15 1   
    29    14    33 1   
    30    14    34 1   
    31    15    19 1   
    32    15    35 1   
    33    15    36 1   
    34    16    17 1   
    35    16    19 1   
    36    16    42 1   
    37    16    43 1   
    38    17    18 1   
    39    17    40 1   
    40    17    41 1   
    41    18    37 1   
    42    18    38 1   
    43    18    39 1   
@<TRIPOS>SUBSTRUCTURE
     1 FK9         1 TEMP              0 ****  ****    0 ROOT
