@<TRIPOS>MOLECULE
FKB
   43    45     1     0     0
SMALL
No Charge or Current Charge


@<TRIPOS>ATOM
      1 C2          -3.8590     0.0280     0.8070 c3         1 FKB      -0.062700
      2 C3          -4.6500    -0.2870    -0.4990 c3         1 FKB      -0.089600
      3 C5          -4.5150     0.7780    -1.4960 c1         1 FKB       0.300900
      4 N2          -4.3820     1.6100    -2.3010 n1         1 FKB      -0.451000
      5 C4          -6.1310    -0.5480    -0.2090 c          1 FKB       0.617100
      6 O1          -6.8510     0.2460     0.3730 o          1 FKB      -0.589100
      7 N1          -6.6410    -1.7190    -0.6510 nt         1 FKB      -0.602000
      8 C1          -2.3750     0.1900     0.6070 cc         1 FKB       0.550300
      9 N7          -1.7520     1.3630     0.7360 nd         1 FKB      -0.608100
     10 N8          -1.6090    -0.9060     0.2740 nc         1 FKB      -0.430300
     11 C16         -0.4090    -0.3900     0.1800 cd         1 FKB       0.246500
     12 N6           0.7220    -1.1000    -0.1190 nd         1 FKB      -0.286000
     13 N5          -0.4860     0.9310     0.4390 na         1 FKB      -0.203600
     14 C15          0.6890     1.6730     0.4090 cd         1 FKB       0.623400
     15 N9           0.6370     2.9920     0.6810 nv         1 FKB      -1.066900
     16 N4           1.8380     1.0780     0.1410 nc         1 FKB      -0.365000
     17 C14          1.7730    -0.2840    -0.1120 cc         1 FKB       0.458900
     18 N3           2.9740    -0.8810    -0.3940 nu         1 FKB      -0.905100
     19 C13          4.2950    -0.2260    -0.4220 c6         1 FKB       0.246500
     20 C12          5.2270    -0.9960    -1.3930 c6         1 FKB      -0.091400
     21 C11          6.6520    -0.3880    -1.4040 c6         1 FKB      -0.070900
     22 C10          7.2550    -0.3490     0.0220 c6         1 FKB      -0.078400
     23 C9           6.3260     0.4070     1.0030 c6         1 FKB      -0.070900
     24 C8           4.9010    -0.2010     1.0070 c6         1 FKB      -0.091400
     25 H1          -4.2630     0.9350     1.2730 hc         1 FKB       0.086700
     26 H2          -4.0230    -0.7810     1.5300 hc         1 FKB       0.086700
     27 H3          -4.2300    -1.1910    -0.9540 hc         1 FKB       0.111700
     28 H4          -6.0580    -2.3830    -1.1400 hn         1 FKB       0.321500
     29 H5          -7.6160    -1.9230    -0.4840 hn         1 FKB       0.321500
     30 H6          -0.2380     3.2910     1.1020 hn         1 FKB       0.525500
     31 H7           1.4790     3.4170     1.0540 hn         1 FKB       0.525500
     32 H8           2.9130    -1.8840    -0.5690 hn         1 FKB       0.512000
     33 H9           4.2140     0.8100    -0.7880 h1         1 FKB       0.076700
     34 H10          5.2840    -2.0540    -1.1010 hc         1 FKB       0.048700
     35 H11          4.8090    -0.9720    -2.4090 hc         1 FKB       0.048700
     36 H12          7.3030    -0.9740    -2.0680 hc         1 FKB       0.042950
     37 H13          6.6180     0.6290    -1.8200 hc         1 FKB       0.042950
     38 H14          7.4180    -1.3750     0.3830 hc         1 FKB       0.042200
     39 H15          8.2420     0.1320    -0.0030 hc         1 FKB       0.042200
     40 H16          6.7480     0.3740     2.0170 hc         1 FKB       0.042950
     41 H17          6.2740     1.4680     0.7210 hc         1 FKB       0.042950
     42 H18          4.2550     0.3800     1.6790 hc         1 FKB       0.048700
     43 H19          4.9380    -1.2210     1.4150 hc         1 FKB       0.048700
@<TRIPOS>BOND
     1     1     2 1   
     2     1     8 1   
     3     1    25 1   
     4     1    26 1   
     5     2     3 1   
     6     2     5 1   
     7     2    27 1   
     8     3     4 3   
     9     5     6 2   
    10     5     7 1   
    11     7    28 1   
    12     7    29 1   
    13     8     9 2   
    14     8    10 1   
    15     9    13 1   
    16    10    11 2   
    17    11    12 1   
    18    11    13 1   
    19    12    17 2   
    20    13    14 1   
    21    14    15 1   
    22    14    16 2   
    23    15    30 1   
    24    15    31 1   
    25    16    17 1   
    26    17    18 1   
    27    18    19 1   
    28    18    32 1   
    29    19    20 1   
    30    19    24 1   
    31    19    33 1   
    32    20    21 1   
    33    20    34 1   
    34    20    35 1   
    35    21    22 1   
    36    21    36 1   
    37    21    37 1   
    38    22    23 1   
    39    22    38 1   
    40    22    39 1   
    41    23    24 1   
    42    23    40 1   
    43    23    41 1   
    44    24    42 1   
    45    24    43 1   
@<TRIPOS>SUBSTRUCTURE
     1 FKB         1 TEMP              0 ****  ****    0 ROOT
