@<TRIPOS>MOLECULE
FKB
   43    45     1     0     0
SMALL
abcg2


@<TRIPOS>ATOM
      1 C2          -3.8240     0.0340     0.9540 c3         1 FKB      -0.062700
      2 C3          -4.5300    -0.4980    -0.2980 c3         1 FKB      -0.089600
      3 C5          -4.2880     0.3850    -1.4310 c1         1 FKB       0.300900
      4 N2          -4.0970     1.0940    -2.3160 n1         1 FKB      -0.451000
      5 C4          -6.0430    -0.6920    -0.0800 c          1 FKB       0.617100
      6 O1          -6.5450    -0.5090     1.0110 o          1 FKB      -0.589100
      7 N1          -6.7130    -1.0810    -1.1670 nt         1 FKB      -0.602000
      8 C1          -2.3530     0.1030     0.7400 cc         1 FKB       0.550300
      9 N7          -1.6910     1.2310     0.8230 nd         1 FKB      -0.608100
     10 N8          -1.6250    -0.9950     0.4320 nc         1 FKB      -0.430300
     11 C16         -0.3950    -0.5260     0.3110 cd         1 FKB       0.246500
     12 N6           0.7340    -1.1510     0.0210 nd         1 FKB      -0.286000
     13 N5          -0.4310     0.8230     0.5490 na         1 FKB      -0.203600
     14 C15          0.7010     1.5690     0.4900 cd         1 FKB       0.623400
     15 N9           0.6170     2.8660     0.7250 nv         1 FKB      -1.066900
     16 N4           1.8310     0.9730     0.2020 nc         1 FKB      -0.365000
     17 C14          1.8090    -0.3590    -0.0220 cc         1 FKB       0.458900
     18 N3           2.9710    -0.9400    -0.3270 nu         1 FKB      -0.905100
     19 C13          4.2610    -0.2790    -0.3870 c6         1 FKB       0.246500
     20 C12          5.1810    -1.0540    -1.3270 c6         1 FKB      -0.091400
     21 C11          6.5490    -0.3890    -1.4240 c6         1 FKB      -0.070900
     22 C10          7.1880    -0.2190    -0.0490 c6         1 FKB      -0.078400
     23 C9           6.2640     0.5450     0.8940 c6         1 FKB      -0.070900
     24 C8           4.8980    -0.1260     0.9940 c6         1 FKB      -0.091400
     25 H1          -4.2080     1.0170     1.2230 hc         1 FKB       0.086700
     26 H2          -4.0370    -0.6480     1.7780 hc         1 FKB       0.086700
     27 H3          -4.1030    -1.4740    -0.5580 hc         1 FKB       0.111700
     28 H4          -6.2600    -1.2820    -2.0430 hn         1 FKB       0.321500
     29 H5          -7.7040    -1.2560    -1.1110 hn         1 FKB       0.321500
     30 H6          -0.2590     3.3040     0.9580 hn         1 FKB       0.525500
     31 H7           1.4490     3.4300     0.6990 hn         1 FKB       0.525500
     32 H8           2.9460    -1.9430    -0.4340 hn         1 FKB       0.512000
     33 H9           4.1020     0.7180    -0.8070 h1         1 FKB       0.076700
     34 H10          5.3010    -2.0780    -0.9530 hc         1 FKB       0.048700
     35 H11          4.7200    -1.1290    -2.3150 hc         1 FKB       0.048700
     36 H12          7.1990    -0.9770    -2.0760 hc         1 FKB       0.042950
     37 H13          6.4410     0.5930    -1.8970 hc         1 FKB       0.042950
     38 H14          7.4020    -1.2050     0.3750 hc         1 FKB       0.042200
     39 H15          8.1470     0.2960    -0.1410 hc         1 FKB       0.042200
     40 H16          6.7130     0.6240     1.8870 hc         1 FKB       0.042950
     41 H17          6.1390     1.5700     0.5290 hc         1 FKB       0.042950
     42 H18          4.2350     0.4530     1.6410 hc         1 FKB       0.048700
     43 H19          5.0050    -1.1180     1.4470 hc         1 FKB       0.048700
@<TRIPOS>BOND
     1     1     2 1   
     2     1     8 1   
     3     1    25 1   
     4     1    26 1   
     5     2     3 1   
     6     2     5 1   
     7     2    27 1   
     8     3     4 3   
     9     5     6 2   
    10     5     7 1   
    11     7    28 1   
    12     7    29 1   
    13     8     9 2   
    14     8    10 1   
    15     9    13 1   
    16    10    11 2   
    17    11    12 1   
    18    11    13 1   
    19    12    17 2   
    20    13    14 1   
    21    14    15 1   
    22    14    16 2   
    23    15    30 1   
    24    15    31 1   
    25    16    17 1   
    26    17    18 1   
    27    18    19 1   
    28    18    32 1   
    29    19    20 1   
    30    19    24 1   
    31    19    33 1   
    32    20    21 1   
    33    20    34 1   
    34    20    35 1   
    35    21    22 1   
    36    21    36 1   
    37    21    37 1   
    38    22    23 1   
    39    22    38 1   
    40    22    39 1   
    41    23    24 1   
    42    23    40 1   
    43    23    41 1   
    44    24    42 1   
    45    24    43 1   
@<TRIPOS>SUBSTRUCTURE
     1 FKB         1 TEMP              0 ****  ****    0 ROOT
