@<TRIPOS>MOLECULE
FKC
   78    81     1     0     0
SMALL
No Charge or Current Charge


@<TRIPOS>ATOM
      1 C27          1.8890    -0.6910    66.0200 c3         1 FKC      -0.100100
      2 C19          7.8610     2.5460    67.9130 c3         1 FKC      -0.082100
      3 C24         10.7270     8.7530    58.2960 c          1 FKC       0.717000
      4 C17          9.1510     5.7930    62.1380 c5         1 FKC      -0.047700
      5 C12          7.2830     5.7070    63.9870 c6         1 FKC      -0.061400
      6 C13          8.7620     5.4360    63.6290 c5         1 FKC      -0.038000
      7 C1           5.5370     2.0170    67.1100 c6         1 FKC      -0.067400
      8 C4           6.5040    -0.0460    65.2290 c6         1 FKC      -0.069400
      9 C3           5.0290    -0.0670    65.7150 c6         1 FKC      -0.056700
     10 C7           9.1780     1.5290    64.5740 c6         1 FKC      -0.071400
     11 C8           8.7530     3.0050    64.8590 c6         1 FKC      -0.043700
     12 C10          7.0400     2.0750    66.6580 c6         1 FKC      -0.028000
     13 C2           4.5880     1.3840    66.0630 c6         1 FKC      -0.072400
     14 C6           8.9370     0.5750    65.7670 c6         1 FKC      -0.068400
     15 O4A         10.0040     8.7840    57.3120 o          1 FKC      -0.742000
     16 O4          11.9400     8.6150    58.2400 o          1 FKC      -0.742000
     17 C22          9.6940     7.4130    60.1880 c3         1 FKC      -0.056400
     18 C20          9.2920     7.3000    61.6960 c3         1 FKC      -0.057700
     19 C21          8.0410     8.1630    62.0020 c3         1 FKC      -0.080100
     20 C16         10.4730     4.9760    61.9410 c5         1 FKC      -0.076400
     21 C15         10.3790     3.7670    62.9130 c5         1 FKC      -0.073400
     22 C14          8.9600     3.8730    63.5480 c5         1 FKC      -0.067700
     23 C9           7.2710     3.0490    65.4180 c6         1 FKC      -0.045700
     24 C11          6.8380     4.5090    65.7150 c6         1 FKC      -0.070400
     25 C5           7.4690     0.6130    66.2680 c6         1 FKC      -0.047700
     26 C29          4.1000    -0.7480    64.6470 c3         1 FKC      -0.102400
     27 C25          2.8400    -1.5300    65.1360 c3         1 FKC       0.184000
     28 C26          2.0650    -2.0910    63.9200 c3         1 FKC      -0.100100
     29 O28          3.2770    -2.6490    65.9080 oh         1 FKC      -0.666000
     30 H27          2.3560    -0.4350    66.9780 hc         1 FKC       0.040033
     31 H271         1.6020     0.2370    65.5100 hc         1 FKC       0.040033
     32 H272         0.9720    -1.2490    66.2440 hc         1 FKC       0.040033
     33 H19          8.9210     2.7130    67.6970 hc         1 FKC       0.031033
     34 H19B         7.4660     3.4800    68.3310 hc         1 FKC       0.031033
     35 H17          7.9380     5.1290    61.0840 hc         1 FKC       0.043700
     36 H12          7.0830     6.7570    64.2240 hc         1 FKC       0.041200
     37 H12A         6.6220     5.4180    63.1600 hc         1 FKC       0.041200
     38 H1           5.1680     3.0130    67.3850 hc         1 FKC       0.035200
     39 H1A          5.4620     1.4260    68.0330 hc         1 FKC       0.035200
     40 H4A          6.8360    -1.0760    65.0410 hc         1 FKC       0.041700
     41 H4           6.5550     0.4660    64.2590 hc         1 FKC       0.041700
     42 H3           4.9880    -0.6780    66.6270 hc         1 FKC       0.031700
     43 H7           8.6540     1.1530    63.6850 hc         1 FKC       0.038700
     44 H7A         10.2470     1.4860    64.3290 hc         1 FKC       0.038700
     45 H8           9.4310     3.4010    65.6260 hc         1 FKC       0.047700
     46 H2           4.5540     2.0010    65.1560 hc         1 FKC       0.039700
     47 H2A          3.5710     1.3990    66.4680 hc         1 FKC       0.039700
     48 H6           9.2020    -0.4490    65.4730 hc         1 FKC       0.034200
     49 H6A          9.6250     0.8290    66.5840 hc         1 FKC       0.034200
     50 H23         10.7770     9.2410    60.4180 hc         1 FKC       0.015200
     51 H23A         9.1300     9.4000    59.6140 hc         1 FKC       0.015200
     52 H22          8.8830     7.0130    59.5660 hc         1 FKC       0.040200
     53 H22A        10.5640     6.7750    60.0010 hc         1 FKC       0.040200
     54 H20         10.1180     7.7390    62.2710 hc         1 FKC       0.036700
     55 H21          7.9480     8.3410    63.0770 hc         1 FKC       0.023700
     56 H21B         8.1040     9.1570    61.5490 hc         1 FKC       0.023700
     57 H21A         7.1280     7.6780    61.6360 hc         1 FKC       0.023700
     58 H16         10.5760     4.6350    60.9040 hc         1 FKC       0.050200
     59 H16A        11.3610     5.5780    62.1630 hc         1 FKC       0.050200
     60 H15         10.5170     2.8200    62.3790 hc         1 FKC       0.032700
     61 H15A        11.1670     3.8150    63.6740 hc         1 FKC       0.032700
     62 H14          8.2280     3.4600    62.8430 hc         1 FKC       0.041700
     63 H9           6.6300     2.7150    64.5930 hc         1 FKC       0.044700
     64 H11A         7.3740     4.9190    66.5800 hc         1 FKC       0.032200
     65 H11          5.7650     4.5800    65.9270 hc         1 FKC       0.032200
     66 H5           7.4240    -0.0090    67.1740 hc         1 FKC       0.034700
     67 H31          4.6980    -1.4570    64.0590 hc         1 FKC       0.051200
     68 HO1B         3.7790     0.0090    63.9210 hc         1 FKC       0.051200
     69 H26          1.2080    -2.6950    64.2430 hc         1 FKC       0.040033
     70 H261         1.6860    -1.2760    63.2920 hc         1 FKC       0.040033
     71 H262         2.7100    -2.7260    63.3010 hc         1 FKC       0.040033
     72 H30          3.9040    -2.3010    66.5750 ho         1 FKC       0.440000
     73 C18          9.6550     6.1430    64.6970 c3         1 FKC      -0.074100
     74 C23         10.0670     8.8360    59.6860 c3         1 FKC      -0.207400
     75 H18          9.4230     5.7940    65.7080 hc         1 FKC       0.028700
     76 H18B        10.7260     5.9780    64.5350 hc         1 FKC       0.028700
     77 H18A         9.4960     7.2270    64.6890 hc         1 FKC       0.028700
     78 H19A         7.8140     1.8030    68.7180 hc         1 FKC       0.031033
@<TRIPOS>BOND
     1     1    27 1   
     2     1    30 1   
     3     1    31 1   
     4     1    32 1   
     5     2    12 1   
     6     2    33 1   
     7     2    34 1   
     8     2    78 1   
     9     3    15 1   
    10     3    16 1   
    11     3    74 1   
    12     4     6 1   
    13     4    18 1   
    14     4    20 1   
    15     4    35 1   
    16     5     6 1   
    17     5    24 1   
    18     5    36 1   
    19     5    37 1   
    20     6    22 1   
    21     6    73 1   
    22     7    12 1   
    23     7    13 1   
    24     7    38 1   
    25     7    39 1   
    26     8     9 1   
    27     8    25 1   
    28     8    40 1   
    29     8    41 1   
    30     9    13 1   
    31     9    26 1   
    32     9    42 1   
    33    10    11 1   
    34    10    14 1   
    35    10    43 1   
    36    10    44 1   
    37    11    22 1   
    38    11    23 1   
    39    11    45 1   
    40    12    23 1   
    41    12    25 1   
    42    13    46 1   
    43    13    47 1   
    44    14    25 1   
    45    14    48 1   
    46    14    49 1   
    47    17    18 1   
    48    17    52 1   
    49    17    53 1   
    50    17    74 1   
    51    18    19 1   
    52    18    54 1   
    53    19    55 1   
    54    19    56 1   
    55    19    57 1   
    56    20    21 1   
    57    20    58 1   
    58    20    59 1   
    59    21    22 1   
    60    21    60 1   
    61    21    61 1   
    62    22    62 1   
    63    23    24 1   
    64    23    63 1   
    65    24    64 1   
    66    24    65 1   
    67    25    66 1   
    68    26    27 1   
    69    26    67 1   
    70    26    68 1   
    71    27    28 1   
    72    27    29 1   
    73    28    69 1   
    74    28    70 1   
    75    28    71 1   
    76    29    72 1   
    77    50    74 1   
    78    51    74 1   
    79    73    75 1   
    80    73    76 1   
    81    73    77 1   
@<TRIPOS>SUBSTRUCTURE
     1 FKC         1 TEMP              0 ****  ****    0 ROOT
