@<TRIPOS>MOLECULE
FKC
   78    81     1     0     0
SMALL
abcg2


@<TRIPOS>ATOM
      1 C27          2.0060    -0.6170    66.0570 c3         1 FKC      -0.100100
      2 C19          7.7720     2.7710    67.7020 c3         1 FKC      -0.082100
      3 C24         10.4410     8.9510    58.5260 c          1 FKC       0.717000
      4 C17          9.1020     5.6520    62.1720 c5         1 FKC      -0.047700
      5 C12          7.2630     5.3040    64.0040 c6         1 FKC      -0.061400
      6 C13          8.7350     5.1960    63.6080 c5         1 FKC      -0.038000
      7 C1           5.5230     2.2800    66.8190 c6         1 FKC      -0.067400
      8 C4           6.4740     0.0290    65.2650 c6         1 FKC      -0.069400
      9 C3           5.0000     0.1150    65.6520 c6         1 FKC      -0.056700
     10 C7           9.2010     1.4310    64.5940 c6         1 FKC      -0.071400
     11 C8           8.8360     2.9010    64.7820 c6         1 FKC      -0.043700
     12 C10          7.0230     2.2280    66.4780 c6         1 FKC      -0.028000
     13 C2           4.6170     1.5840    65.8120 c6         1 FKC      -0.072400
     14 C6           8.8670     0.5960    65.8220 c6         1 FKC      -0.068400
     15 O4A         10.0370     8.1050    57.7020 o          1 FKC      -0.742000
     16 O4          11.0970     9.9820    58.2690 o          1 FKC      -0.742000
     17 C22          9.6030     7.3440    60.3860 c3         1 FKC      -0.056400
     18 C20          9.2830     7.1470    61.8760 c3         1 FKC      -0.057700
     19 C21          8.0680     7.9850    62.2670 c3         1 FKC      -0.080100
     20 C16         10.3850     4.8350    61.8540 c5         1 FKC      -0.076400
     21 C15         10.4380     3.6630    62.8540 c5         1 FKC      -0.073400
     22 C14          9.0610     3.6940    63.5040 c5         1 FKC      -0.067700
     23 C9           7.3600     3.0490    65.2050 c6         1 FKC      -0.045700
     24 C11          6.9570     4.5250    65.2860 c6         1 FKC      -0.070400
     25 C5           7.4060     0.7460    66.2480 c6         1 FKC      -0.047700
     26 C29          4.1170    -0.6280    64.6380 c3         1 FKC      -0.102400
     27 C25          2.9550    -1.4600    65.2080 c3         1 FKC       0.184000
     28 C26          2.1840    -2.0900    64.0530 c3         1 FKC      -0.100100
     29 O28          3.4570    -2.5500    65.9750 oh         1 FKC      -0.666000
     30 H27          2.5040    -0.2090    66.9400 hc         1 FKC       0.040033
     31 H271         1.6100     0.2240    65.4860 hc         1 FKC       0.040033
     32 H272         1.1620    -1.2180    66.4020 hc         1 FKC       0.040033
     33 H19          8.8500     2.8310    67.5590 hc         1 FKC       0.031033
     34 H19B         7.4240     3.7710    67.9670 hc         1 FKC       0.031033
     35 H17          8.2960     5.2900    61.5170 hc         1 FKC       0.043700
     36 H12          6.9550     6.3420    64.1440 hc         1 FKC       0.041200
     37 H12A         6.6470     4.9070    63.1880 hc         1 FKC       0.041200
     38 H1           5.2020     3.3150    66.9610 hc         1 FKC       0.035200
     39 H1A          5.3830     1.7960    67.7930 hc         1 FKC       0.035200
     40 H4A          6.7760    -1.0220    65.2100 hc         1 FKC       0.041700
     41 H4           6.5900     0.4250    64.2500 hc         1 FKC       0.041700
     42 H3           4.9020    -0.3540    66.6420 hc         1 FKC       0.031700
     43 H7           8.6710     1.0440    63.7160 hc         1 FKC       0.038700
     44 H7A         10.2670     1.3360    64.3670 hc         1 FKC       0.038700
     45 H8           9.4820     3.3090    65.5700 hc         1 FKC       0.047700
     46 H2           4.6720     2.0790    64.8350 hc         1 FKC       0.039700
     47 H2A          3.5780     1.6780    66.1350 hc         1 FKC       0.039700
     48 H6           9.0790    -0.4600    65.6250 hc         1 FKC       0.034200
     49 H6A          9.5270     0.8850    66.6440 hc         1 FKC       0.034200
     50 H23         10.9410     9.0140    60.6240 hc         1 FKC       0.015200
     51 H23A         9.3090     9.4860    60.2570 hc         1 FKC       0.015200
     52 H22          8.7130     7.0800    59.8040 hc         1 FKC       0.040200
     53 H22A        10.3760     6.6330    60.0830 hc         1 FKC       0.040200
     54 H20         10.1450     7.5050    62.4530 hc         1 FKC       0.036700
     55 H21          7.8870     7.9790    63.3400 hc         1 FKC       0.023700
     56 H21B         8.1940     9.0290    61.9760 hc         1 FKC       0.023700
     57 H21A         7.1630     7.6170    61.7760 hc         1 FKC       0.023700
     58 H16         10.3720     4.4730    60.8250 hc         1 FKC       0.050200
     59 H16A        11.2730     5.4660    61.9440 hc         1 FKC       0.050200
     60 H15         10.6520     2.7110    62.3660 hc         1 FKC       0.032700
     61 H15A        11.2200     3.8160    63.6020 hc         1 FKC       0.032700
     62 H14          8.3540     3.2860    62.7640 hc         1 FKC       0.041700
     63 H9           6.7770     2.6250    64.3760 hc         1 FKC       0.044700
     64 H11A         7.4520     5.0090    66.1320 hc         1 FKC       0.032200
     65 H11          5.8860     4.6070    65.4830 hc         1 FKC       0.032200
     66 H5           7.2870     0.2340    67.2140 hc         1 FKC       0.034700
     67 H31          4.7370    -1.3150    64.0520 hc         1 FKC       0.051200
     68 HO1B         3.7080     0.0910    63.9200 hc         1 FKC       0.051200
     69 H26          1.3690    -2.7160    64.4210 hc         1 FKC       0.040033
     70 H261         1.7510    -1.3170    63.4180 hc         1 FKC       0.040033
     71 H262         2.8370    -2.7070    63.4330 hc         1 FKC       0.040033
     72 H30          3.8980    -2.1960    66.7550 ho         1 FKC       0.440000
     73 C18          9.6220     5.9160    64.6300 c3         1 FKC      -0.074100
     74 C23         10.0750     8.7410    60.0110 c3         1 FKC      -0.207400
     75 H18          9.5720     5.4640    65.6210 hc         1 FKC       0.028700
     76 H18B        10.6730     5.9250    64.3360 hc         1 FKC       0.028700
     77 H18A         9.3140     6.9570    64.7430 hc         1 FKC       0.028700
     78 H19A         7.5940     2.1280    68.5680 hc         1 FKC       0.031033
@<TRIPOS>BOND
     1     1    27 1   
     2     1    30 1   
     3     1    31 1   
     4     1    32 1   
     5     2    12 1   
     6     2    33 1   
     7     2    34 1   
     8     2    78 1   
     9     3    15 1   
    10     3    16 1   
    11     3    74 1   
    12     4     6 1   
    13     4    18 1   
    14     4    20 1   
    15     4    35 1   
    16     5     6 1   
    17     5    24 1   
    18     5    36 1   
    19     5    37 1   
    20     6    22 1   
    21     6    73 1   
    22     7    12 1   
    23     7    13 1   
    24     7    38 1   
    25     7    39 1   
    26     8     9 1   
    27     8    25 1   
    28     8    40 1   
    29     8    41 1   
    30     9    13 1   
    31     9    26 1   
    32     9    42 1   
    33    10    11 1   
    34    10    14 1   
    35    10    43 1   
    36    10    44 1   
    37    11    22 1   
    38    11    23 1   
    39    11    45 1   
    40    12    23 1   
    41    12    25 1   
    42    13    46 1   
    43    13    47 1   
    44    14    25 1   
    45    14    48 1   
    46    14    49 1   
    47    17    18 1   
    48    17    52 1   
    49    17    53 1   
    50    17    74 1   
    51    18    19 1   
    52    18    54 1   
    53    19    55 1   
    54    19    56 1   
    55    19    57 1   
    56    20    21 1   
    57    20    58 1   
    58    20    59 1   
    59    21    22 1   
    60    21    60 1   
    61    21    61 1   
    62    22    62 1   
    63    23    24 1   
    64    23    63 1   
    65    24    64 1   
    66    24    65 1   
    67    25    66 1   
    68    26    27 1   
    69    26    67 1   
    70    26    68 1   
    71    27    28 1   
    72    27    29 1   
    73    28    69 1   
    74    28    70 1   
    75    28    71 1   
    76    29    72 1   
    77    50    74 1   
    78    51    74 1   
    79    73    75 1   
    80    73    76 1   
    81    73    77 1   
@<TRIPOS>SUBSTRUCTURE
     1 FKC         1 TEMP              0 ****  ****    0 ROOT
