@<TRIPOS>MOLECULE
FKD
   33    33     1     0     0
SMALL
bcc


@<TRIPOS>ATOM
      1 O2           1.4230     1.0080     1.7340 oh         1 FKD      -0.631800
      2 C1           1.8100     2.2030    -0.3660 c          1 FKD       0.939600
      3 F1           2.4870    -0.2970    -1.3750 f          1 FKD      -0.235300
      4 C2           1.3800     0.8790     0.3420 c6         1 FKD       0.172600
      5 C3           2.3640    -0.2420     0.0120 c6         1 FKD       0.150600
      6 C4           1.8620    -1.5850     0.5160 c6         1 FKD       0.076100
      7 O4           2.6860    -2.6490     0.0960 oh         1 FKD      -0.608800
      8 C5           0.4520    -1.8570     0.0090 c6         1 FKD       0.123100
      9 O5          -0.0990    -3.0020     0.6140 oh         1 FKD      -0.613800
     10 C6          -0.4510    -0.6760     0.3640 c6         1 FKD       0.117100
     11 O6           0.1010     0.5380    -0.1060 os         1 FKD      -0.405600
     12 C7          -1.8250    -0.7730    -0.3000 c3         1 FKD       0.134100
     13 O7          -1.7050    -0.6720    -1.7010 oh         1 FKD      -0.613800
     14 C8          -2.8110     0.2720     0.2560 c3         1 FKD       0.111100
     15 O8          -2.9190     0.1710     1.6580 oh         1 FKD      -0.576800
     16 C9          -4.1680     0.1450    -0.4200 c3         1 FKD       0.104400
     17 O9          -5.0160     1.1580     0.0700 oh         1 FKD      -0.587800
     18 O1A          0.9860     2.7610    -1.1020 o          1 FKD      -0.792800
     19 O1B          2.9650     2.5680    -0.0830 o          1 FKD      -0.792800
     20 HO2          0.9370     1.7960     2.0010 ho         1 FKD       0.419000
     21 H3           3.3490    -0.0120     0.4230 h1         1 FKD       0.079700
     22 H4           1.8250    -1.5310     1.6120 h1         1 FKD       0.054700
     23 HO4          3.4410    -2.7090     0.6880 ho         1 FKD       0.400000
     24 H5           0.4850    -1.9690    -1.0840 h1         1 FKD       0.069700
     25 HO5          0.4650    -3.7530     0.3990 ho         1 FKD       0.408000
     26 H6          -0.5790    -0.6580     1.4530 h1         1 FKD       0.061700
     27 H7          -2.2330    -1.7680    -0.0940 h1         1 FKD       0.060700
     28 HO7         -1.1570     0.1000    -1.8850 ho         1 FKD       0.444000
     29 H8          -2.4150     1.2740     0.0600 h1         1 FKD       0.115700
     30 HO8         -3.3090    -0.6830     1.8770 ho         1 FKD       0.386000
     31 H9          -4.0370     0.2190    -1.5040 h1         1 FKD       0.022200
     32 H9A         -4.5760    -0.8570    -0.2150 h1         1 FKD       0.022200
     33 HO9         -5.8460     1.1070    -0.4130 ho         1 FKD       0.388000
@<TRIPOS>BOND
     1     1     4 1   
     2     1    20 1   
     3     2     4 1   
     4     2    18 1   
     5     2    19 1   
     6     3     5 1   
     7     4     5 1   
     8     4    11 1   
     9     5     6 1   
    10     5    21 1   
    11     6     7 1   
    12     6     8 1   
    13     6    22 1   
    14     7    23 1   
    15     8     9 1   
    16     8    10 1   
    17     8    24 1   
    18     9    25 1   
    19    10    11 1   
    20    10    12 1   
    21    10    26 1   
    22    12    13 1   
    23    12    14 1   
    24    12    27 1   
    25    13    28 1   
    26    14    15 1   
    27    14    16 1   
    28    14    29 1   
    29    15    30 1   
    30    16    17 1   
    31    16    31 1   
    32    16    32 1   
    33    17    33 1   
@<TRIPOS>SUBSTRUCTURE
     1 FKD         1 TEMP              0 ****  ****    0 ROOT
