@<TRIPOS>MOLECULE
FKD
   33    33     1     0     0
SMALL
No Charge or Current Charge


@<TRIPOS>ATOM
      1 O2           1.3220     1.1020     1.6910 oh         1 FKD      -0.694000
      2 C1           2.0930     2.1880    -0.4170 c          1 FKD       0.729000
      3 F1           2.6940    -0.4290    -1.3850 f          1 FKD      -0.254000
      4 C2           1.4770     0.8740     0.2680 c6         1 FKD       0.219000
      5 C3           2.4620    -0.3150     0.0080 c6         1 FKD       0.169300
      6 C4           1.8780    -1.6660     0.5320 c6         1 FKD       0.099300
      7 O4           2.7270    -2.7970     0.2200 oh         1 FKD      -0.671000
      8 C5           0.4520    -1.8990    -0.0470 c6         1 FKD       0.146300
      9 O5          -0.0700    -3.1300     0.4880 oh         1 FKD      -0.736000
     10 C6          -0.4580    -0.6730     0.2850 c6         1 FKD       0.140300
     11 O6           0.1500     0.5450    -0.2440 os         1 FKD      -0.452000
     12 C7          -1.8750    -0.7700    -0.3760 c3         1 FKD       0.157300
     13 O7          -1.7640    -0.4300    -1.7730 oh         1 FKD      -0.736000
     14 C8          -2.9380     0.1520     0.3030 c3         1 FKD       0.134300
     15 O8          -3.1160    -0.2060     1.6860 oh         1 FKD      -0.639000
     16 C9          -4.3340     0.0810    -0.3770 c3         1 FKD       0.127600
     17 O9          -5.2950     0.8360     0.3860 oh         1 FKD      -0.710000
     18 O1A          1.5690     2.5860    -1.4540 o          1 FKD      -0.687500
     19 O1B          2.5530     3.0090     0.3740 o          1 FKD      -0.687500
     20 HO2          1.7180     1.9980     1.8180 ho         1 FKD       0.458000
     21 H3           3.4290    -0.1070     0.4850 h1         1 FKD       0.079700
     22 H4           1.7840    -1.5770     1.6250 h1         1 FKD       0.054700
     23 HO4          3.6180    -2.6100     0.5920 ho         1 FKD       0.439000
     24 H5           0.5360    -1.9760    -1.1420 h1         1 FKD       0.069700
     25 HO5          0.7190    -3.7250     0.5270 ho         1 FKD       0.507000
     26 H6          -0.5700    -0.5910     1.3750 h1         1 FKD       0.061700
     27 H7          -2.2310    -1.8050    -0.2700 h1         1 FKD       0.060700
     28 HO7         -1.0000     0.2000    -1.7980 ho         1 FKD       0.543000
     29 H8          -2.5830     1.1900     0.2260 h1         1 FKD       0.115700
     30 HO8         -4.0230     0.1170     1.8980 ho         1 FKD       0.425000
     31 H9          -4.2630     0.4830    -1.3970 h1         1 FKD       0.022200
     32 H9A         -4.6480    -0.9690    -0.4540 h1         1 FKD       0.022200
     33 HO9         -6.1420     0.8190    -0.1180 ho         1 FKD       0.487000
@<TRIPOS>BOND
     1     1     4 1   
     2     1    20 1   
     3     2     4 1   
     4     2    18 1   
     5     2    19 1   
     6     3     5 1   
     7     4     5 1   
     8     4    11 1   
     9     5     6 1   
    10     5    21 1   
    11     6     7 1   
    12     6     8 1   
    13     6    22 1   
    14     7    23 1   
    15     8     9 1   
    16     8    10 1   
    17     8    24 1   
    18     9    25 1   
    19    10    11 1   
    20    10    12 1   
    21    10    26 1   
    22    12    13 1   
    23    12    14 1   
    24    12    27 1   
    25    13    28 1   
    26    14    15 1   
    27    14    16 1   
    28    14    29 1   
    29    15    30 1   
    30    16    17 1   
    31    16    31 1   
    32    16    32 1   
    33    17    33 1   
@<TRIPOS>SUBSTRUCTURE
     1 FKD         1 TEMP              0 ****  ****    0 ROOT
