@<TRIPOS>MOLECULE
FKE
   44    46     1     0     0
SMALL
No Charge or Current Charge


@<TRIPOS>ATOM
      1 C1          -3.9500     0.1060     0.0690 ca         1 FKE      -0.256500
      2 C2          -3.2110    -0.1330    -1.1070 ca         1 FKE      -0.016500
      3 C3          -1.9380    -0.7230    -1.0330 ca         1 FKE      -0.101000
      4 C4          -1.3730    -1.0720     0.2160 ca         1 FKE      -0.086600
      5 C5          -2.1350    -0.8550     1.3850 ca         1 FKE      -0.101000
      6 C6          -3.4090    -0.2650     1.3160 ca         1 FKE      -0.016500
      7 C7          -0.0130    -1.7350     0.3230 c          1 FKE       0.607700
      8 C8           1.1380    -0.0700    -1.2180 c6         1 FKE       0.092500
      9 C9           2.3670     0.6520    -0.6130 c6         1 FKE      -0.096400
     10 C10          3.6580    -0.1910    -0.7710 c6         1 FKE      -0.014400
     11 C11          3.4330    -1.6010    -0.1670 c6         1 FKE      -0.096400
     12 C12          2.1930    -2.2780    -0.7950 c6         1 FKE       0.092500
     13 C13          4.8840     0.5090    -0.1650 ca         1 FKE      -0.078300
     14 C14          4.9430     0.8040     1.2140 ca         1 FKE      -0.105500
     15 C15          6.0700     1.4450     1.7570 ca         1 FKE      -0.109000
     16 C16          7.1470     1.7980     0.9280 ca         1 FKE      -0.108000
     17 C17          7.0960     1.5090    -0.4450 ca         1 FKE      -0.109000
     18 C18          5.9700     0.8680    -0.9890 ca         1 FKE      -0.105500
     19 S1          -5.5790     0.8590    -0.0240 sy         1 FKE       1.127600
     20 O1          -5.9630     1.4360     1.2620 o          1 FKE      -0.544000
     21 O2          -5.7540     1.5770    -1.2840 o          1 FKE      -0.544000
     22 O3           0.1980    -2.5790     1.1870 o          1 FKE      -0.589100
     23 N2           0.9720    -1.4400    -0.6520 n          1 FKE      -0.396800
     24 N1          -6.5730    -0.4250    -0.1760 n8         1 FKE      -1.008100
     25 H1          -3.6230     0.1280    -2.0810 ha         1 FKE       0.139500
     26 H2          -1.3990    -0.9240    -1.9560 ha         1 FKE       0.129000
     27 H3          -1.7340    -1.1370     2.3560 ha         1 FKE       0.129000
     28 H4          -3.9720    -0.1010     2.2340 ha         1 FKE       0.139500
     29 H5           0.2540     0.5510    -1.0280 h1         1 FKE       0.059700
     30 H6           1.2570    -0.1460    -2.3080 h1         1 FKE       0.059700
     31 H7           2.4960     1.6290    -1.0980 hc         1 FKE       0.055450
     32 H8           2.1740     0.8550     0.4490 hc         1 FKE       0.055450
     33 H9           3.8340    -0.3210    -1.8480 hc         1 FKE       0.049700
     34 H10          4.3200    -2.2260    -0.3330 hc         1 FKE       0.055450
     35 H11          3.2950    -1.5350     0.9210 hc         1 FKE       0.055450
     36 H12          2.3780    -2.4490    -1.8660 h1         1 FKE       0.059700
     37 H13          2.0410    -3.2670    -0.3400 h1         1 FKE       0.059700
     38 H14          4.1170     0.5370     1.8690 ha         1 FKE       0.110500
     39 H15          6.1070     1.6690     2.8210 ha         1 FKE       0.113000
     40 H16          8.0190     2.2950     1.3490 ha         1 FKE       0.113000
     41 H17          7.9300     1.7820    -1.0890 ha         1 FKE       0.113000
     42 H18          5.9450     0.6500    -2.0550 ha         1 FKE       0.110500
     43 H19         -7.2310    -0.2350     0.5760 hn         1 FKE       0.476500
     44 H20         -7.1040    -0.1470    -0.9980 hn         1 FKE       0.476500
@<TRIPOS>BOND
     1     1     2 ar  
     2     1     6 ar  
     3     1    19 1   
     4     2     3 ar  
     5     2    25 1   
     6     3     4 ar  
     7     3    26 1   
     8     4     5 ar  
     9     4     7 1   
    10     5     6 ar  
    11     5    27 1   
    12     6    28 1   
    13     7    22 2   
    14     7    23 1   
    15     8     9 1   
    16     8    23 1   
    17     8    29 1   
    18     8    30 1   
    19     9    10 1   
    20     9    31 1   
    21     9    32 1   
    22    10    11 1   
    23    10    13 1   
    24    10    33 1   
    25    11    12 1   
    26    11    34 1   
    27    11    35 1   
    28    12    23 1   
    29    12    36 1   
    30    12    37 1   
    31    13    14 ar  
    32    13    18 ar  
    33    14    15 ar  
    34    14    38 1   
    35    15    16 ar  
    36    15    39 1   
    37    16    17 ar  
    38    16    40 1   
    39    17    18 ar  
    40    17    41 1   
    41    18    42 1   
    42    19    20 2   
    43    19    21 2   
    44    19    24 1   
    45    24    43 1   
    46    24    44 1   
@<TRIPOS>SUBSTRUCTURE
     1 FKE         1 TEMP              0 ****  ****    0 ROOT
