@<TRIPOS>MOLECULE
FKE
   44    46     1     0     0
SMALL
abcg2


@<TRIPOS>ATOM
      1 C1          -3.6780     0.2160     0.0640 ca         1 FKE      -0.256500
      2 C2          -3.2240    -0.3220    -1.1330 ca         1 FKE      -0.016500
      3 C3          -2.0080    -0.9810    -1.1550 ca         1 FKE      -0.101000
      4 C4          -1.2590    -1.1150     0.0130 ca         1 FKE      -0.086600
      5 C5          -1.7390    -0.5880     1.2050 ca         1 FKE      -0.101000
      6 C6          -2.9440     0.0970     1.2340 ca         1 FKE      -0.016500
      7 C7           0.0010    -1.9270     0.0340 c          1 FKE       0.607700
      8 C8           1.1260    -0.2580    -1.4190 c6         1 FKE       0.092500
      9 C9           2.2480     0.5250    -0.7470 c6         1 FKE      -0.096400
     10 C10          3.5670    -0.2510    -0.7700 c6         1 FKE      -0.014400
     11 C11          3.3580    -1.6470    -0.1750 c6         1 FKE      -0.096400
     12 C12          2.2090    -2.3600    -0.8760 c6         1 FKE       0.092500
     13 C13          4.6780     0.5070    -0.0880 ca         1 FKE      -0.078300
     14 C14          4.6090     0.8240     1.2680 ca         1 FKE      -0.105500
     15 C15          5.6310     1.5290     1.8890 ca         1 FKE      -0.109000
     16 C16          6.7440     1.9330     1.1610 ca         1 FKE      -0.108000
     17 C17          6.8250     1.6230    -0.1890 ca         1 FKE      -0.109000
     18 C18          5.8000     0.9160    -0.8050 ca         1 FKE      -0.105500
     19 S1          -5.2310     1.0700     0.0780 sy         1 FKE       1.127600
     20 O1          -5.3250     1.8000     1.3350 o          1 FKE      -0.544000
     21 O2          -5.3890     1.8060    -1.1670 o          1 FKE      -0.544000
     22 O3           0.0600    -2.8930     0.7840 o          1 FKE      -0.589100
     23 N2           0.9880    -1.5730    -0.8090 n          1 FKE      -0.396800
     24 N1          -6.2860    -0.1950    -0.0080 n8         1 FKE      -1.008100
     25 H1          -3.8020    -0.2310    -2.0430 ha         1 FKE       0.139500
     26 H2          -1.6470    -1.3970    -2.0870 ha         1 FKE       0.129000
     27 H3          -1.1700    -0.6990     2.1190 ha         1 FKE       0.129000
     28 H4          -3.3010     0.5200     2.1630 ha         1 FKE       0.139500
     29 H5           0.1960     0.3000    -1.3540 h1         1 FKE       0.059700
     30 H6           1.3450    -0.3930    -2.4830 h1         1 FKE       0.059700
     31 H7           2.3650     1.4840    -1.2580 hc         1 FKE       0.055450
     32 H8           1.9580     0.7460     0.2850 hc         1 FKE       0.055450
     33 H9           3.8540    -0.3840    -1.8200 hc         1 FKE       0.049700
     34 H10          4.2670    -2.2430    -0.2800 hc         1 FKE       0.055450
     35 H11          3.1420    -1.5780     0.8950 hc         1 FKE       0.055450
     36 H12          2.4530    -2.5050    -1.9330 h1         1 FKE       0.059700
     37 H13          2.0350    -3.3430    -0.4460 h1         1 FKE       0.059700
     38 H14          3.7480     0.5190     1.8520 ha         1 FKE       0.110500
     39 H15          5.5570     1.7650     2.9430 ha         1 FKE       0.113000
     40 H16          7.5410     2.4830     1.6440 ha         1 FKE       0.113000
     41 H17          7.6860     1.9340    -0.7670 ha         1 FKE       0.113000
     42 H18          5.8740     0.6770    -1.8600 ha         1 FKE       0.110500
     43 H19         -6.4010    -0.6770     0.8770 hn         1 FKE       0.476500
     44 H20         -7.1880     0.0920    -0.3770 hn         1 FKE       0.476500
@<TRIPOS>BOND
     1     1     2 ar  
     2     1     6 ar  
     3     1    19 1   
     4     2     3 ar  
     5     2    25 1   
     6     3     4 ar  
     7     3    26 1   
     8     4     5 ar  
     9     4     7 1   
    10     5     6 ar  
    11     5    27 1   
    12     6    28 1   
    13     7    22 2   
    14     7    23 1   
    15     8     9 1   
    16     8    23 1   
    17     8    29 1   
    18     8    30 1   
    19     9    10 1   
    20     9    31 1   
    21     9    32 1   
    22    10    11 1   
    23    10    13 1   
    24    10    33 1   
    25    11    12 1   
    26    11    34 1   
    27    11    35 1   
    28    12    23 1   
    29    12    36 1   
    30    12    37 1   
    31    13    14 ar  
    32    13    18 ar  
    33    14    15 ar  
    34    14    38 1   
    35    15    16 ar  
    36    15    39 1   
    37    16    17 ar  
    38    16    40 1   
    39    17    18 ar  
    40    17    41 1   
    41    18    42 1   
    42    19    20 2   
    43    19    21 2   
    44    19    24 1   
    45    24    43 1   
    46    24    44 1   
@<TRIPOS>SUBSTRUCTURE
     1 FKE         1 TEMP              0 ****  ****    0 ROOT
