@<TRIPOS>MOLECULE
FKF
   78    81     1     0     0
SMALL
abcg2


@<TRIPOS>ATOM
      1 C8          12.1750     2.6990    26.0060 c6         1 FKF      -0.044700
      2 C9          10.7250     3.0690    26.3780 c6         1 FKF      -0.043700
      3 C7          12.3080     1.2060    25.7210 c6         1 FKF      -0.070400
      4 O4          15.1710     8.0130    19.6320 o          1 FKF      -0.742000
      5 C3           7.8990     0.5330    26.4790 c6         1 FKF      -0.048700
      6 C6          11.7780     0.3610    26.8730 c6         1 FKF      -0.069400
      7 C5          10.3390     0.7210    27.2420 c6         1 FKF      -0.044700
      8 C4           9.3670     0.2560    26.1540 c6         1 FKF      -0.070400
      9 C2           7.7460     2.0310    26.7680 c6         1 FKF      -0.072400
     10 C1           8.7030     2.5070    27.8540 c6         1 FKF      -0.067400
     11 C10         10.1910     2.2290    27.5690 c6         1 FKF      -0.030000
     12 O4A         16.3550     9.6800    20.5180 o          1 FKF      -0.742000
     13 C24         15.4990     8.7720    20.5660 c          1 FKF       0.717000
     14 C23         14.7660     8.6050    21.9140 c3         1 FKF      -0.206400
     15 C22         14.0720     7.2640    22.1170 c3         1 FKF      -0.056400
     16 C20         13.5430     7.0220    23.5370 c3         1 FKF      -0.057700
     17 C21         12.4420     8.0210    23.8790 c3         1 FKF      -0.079100
     18 C17         13.0900     5.5610    23.6820 c5         1 FKF      -0.047700
     19 C13         12.5510     5.0590    25.0460 c5         1 FKF      -0.038000
     20 C18         13.4820     5.5110    26.1770 c3         1 FKF      -0.074100
     21 C12         11.1000     5.4030    25.3830 c6         1 FKF      -0.061400
     22 C16         14.2320     4.5580    23.3610 c5         1 FKF      -0.076400
     23 C15         13.9790     3.2970    24.2080 c5         1 FKF      -0.073400
     24 C14         12.6020     3.5370    24.8120 c5         1 FKF      -0.066700
     25 C11         10.5730     4.5820    26.5650 c6         1 FKF      -0.070400
     26 C19         10.9550     2.5510    28.8600 c3         1 FKF      -0.082100
     27 C29          7.3030    -0.2930    27.6250 c3         1 FKF      -0.096400
     28 C25          7.2930    -1.8270    27.5090 c3         1 FKF       0.184000
     29 C26          6.3880    -2.3880    28.6090 c3         1 FKF      -0.100600
     30 C27          6.7870    -2.2900    26.1490 c3         1 FKF      -0.100600
     31 O28          8.5980    -2.3790    27.6550 oh         1 FKF      -0.659000
     32 H8          12.8410     2.9320    26.8470 hc         1 FKF       0.046700
     33 H9          10.1210     2.8080    25.4990 hc         1 FKF       0.044700
     34 H7          11.7750     0.9650    24.7950 hc         1 FKF       0.039200
     35 H7A         13.3560     0.9560    25.5360 hc         1 FKF       0.039200
     36 H3           7.3120     0.3100    25.5810 hc         1 FKF       0.042700
     37 H6          11.8350    -0.7020    26.6180 hc         1 FKF       0.035200
     38 H6A         12.4290     0.4950    27.7420 hc         1 FKF       0.035200
     39 H5          10.0840     0.1740    28.1590 hc         1 FKF       0.030700
     40 H4A          9.5260    -0.8070    25.9700 hc         1 FKF       0.049200
     41 H4           9.5960     0.7580    25.2090 hc         1 FKF       0.049200
     42 H2           7.9200     2.5920    25.8440 hc         1 FKF       0.038700
     43 H2A          6.7170     2.2530    27.0670 hc         1 FKF       0.038700
     44 H1           8.5500     3.5720    28.0440 hc         1 FKF       0.033700
     45 H1A          8.4500     2.0100    28.7970 hc         1 FKF       0.033700
     46 H23         15.4820     8.7730    22.7250 hc         1 FKF       0.014700
     47 H23A        14.0460     9.4280    21.9960 hc         1 FKF       0.014700
     48 H22         13.2440     7.1570    21.4080 hc         1 FKF       0.040200
     49 H22A        14.7830     6.4750    21.8640 hc         1 FKF       0.040200
     50 H20         14.3790     7.1860    24.2310 hc         1 FKF       0.037700
     51 H21         12.1410     7.9640    24.9230 hc         1 FKF       0.023367
     52 H21B        12.7660     9.0470    23.7010 hc         1 FKF       0.023367
     53 H21A        11.5530     7.8460    23.2670 hc         1 FKF       0.023367
     54 H17         12.2840     5.3990    22.9510 hc         1 FKF       0.041700
     55 H18         13.2540     5.0270    27.1260 hc         1 FKF       0.028700
     56 H18B        14.5330     5.3080    25.9610 hc         1 FKF       0.028700
     57 H18A        13.3920     6.5860    26.3390 hc         1 FKF       0.028700
     58 H12         10.9760     6.4620    25.6160 hc         1 FKF       0.040700
     59 H12A        10.4770     5.2080    24.5020 hc         1 FKF       0.040700
     60 H16         14.2570     4.3220    22.2970 hc         1 FKF       0.051200
     61 H16A        15.2040     4.9970    23.6000 hc         1 FKF       0.051200
     62 H15         14.0180     2.3840    23.6120 hc         1 FKF       0.032200
     63 H15A        14.7340     3.1870    24.9920 hc         1 FKF       0.032200
     64 H14         11.8690     3.3360    24.0140 hc         1 FKF       0.041700
     65 H11A        11.0790     4.9000    27.4810 hc         1 FKF       0.031700
     66 H11          9.5190     4.8370    26.7080 hc         1 FKF       0.031700
     67 H19A        10.6680     1.8540    29.6500 hc         1 FKF       0.029700
     68 H19         12.0370     2.4860    28.7500 hc         1 FKF       0.029700
     69 H19B        10.7270     3.5550    29.2210 hc         1 FKF       0.029700
     70 HO1B         7.7850    -0.0350    28.5750 hc         1 FKF       0.038200
     71 H31          6.2620     0.0280    27.7390 hc         1 FKF       0.038200
     72 H262         6.7250    -2.0620    29.5970 hc         1 FKF       0.039200
     73 H26          5.3570    -2.0530    28.4860 hc         1 FKF       0.039200
     74 H261         6.3910    -3.4790    28.5950 hc         1 FKF       0.039200
     75 H272         6.7070    -3.3780    26.1140 hc         1 FKF       0.039200
     76 H27          5.7970    -1.8770    25.9520 hc         1 FKF       0.039200
     77 H271         7.4480    -1.9770    25.3400 hc         1 FKF       0.039200
     78 H30          8.9670    -2.0550    28.4840 ho         1 FKF       0.438000
@<TRIPOS>BOND
     1     1     2 1   
     2     1     3 1   
     3     1    24 1   
     4     1    32 1   
     5     2    11 1   
     6     2    25 1   
     7     2    33 1   
     8     3     6 1   
     9     3    34 1   
    10     3    35 1   
    11     4    13 1   
    12     5     8 1   
    13     5     9 1   
    14     5    27 1   
    15     5    36 1   
    16     6     7 1   
    17     6    37 1   
    18     6    38 1   
    19     7     8 1   
    20     7    11 1   
    21     7    39 1   
    22     8    40 1   
    23     8    41 1   
    24     9    10 1   
    25     9    42 1   
    26     9    43 1   
    27    10    11 1   
    28    10    44 1   
    29    10    45 1   
    30    11    26 1   
    31    12    13 1   
    32    13    14 1   
    33    14    15 1   
    34    14    46 1   
    35    14    47 1   
    36    15    16 1   
    37    15    48 1   
    38    15    49 1   
    39    16    17 1   
    40    16    18 1   
    41    16    50 1   
    42    17    51 1   
    43    17    52 1   
    44    17    53 1   
    45    18    19 1   
    46    18    22 1   
    47    18    54 1   
    48    19    20 1   
    49    19    21 1   
    50    19    24 1   
    51    20    55 1   
    52    20    56 1   
    53    20    57 1   
    54    21    25 1   
    55    21    58 1   
    56    21    59 1   
    57    22    23 1   
    58    22    60 1   
    59    22    61 1   
    60    23    24 1   
    61    23    62 1   
    62    23    63 1   
    63    24    64 1   
    64    25    65 1   
    65    25    66 1   
    66    26    67 1   
    67    26    68 1   
    68    26    69 1   
    69    27    28 1   
    70    27    70 1   
    71    27    71 1   
    72    28    29 1   
    73    28    30 1   
    74    28    31 1   
    75    29    72 1   
    76    29    73 1   
    77    29    74 1   
    78    30    75 1   
    79    30    76 1   
    80    30    77 1   
    81    31    78 1   
@<TRIPOS>SUBSTRUCTURE
     1 FKF         1 TEMP              0 ****  ****    0 ROOT
