@<TRIPOS>MOLECULE
FKF
   78    81     1     0     0
SMALL
No Charge or Current Charge


@<TRIPOS>ATOM
      1 C8          12.1510     2.8400    25.9470 c6         1 FKF      -0.044700
      2 C9          10.6880     3.2820    26.2210 c6         1 FKF      -0.043700
      3 C7          12.1890     1.3040    25.6760 c6         1 FKF      -0.070400
      4 O4          14.9710     9.0090    19.2620 o          1 FKF      -0.742000
      5 C3           7.7470     0.3870    26.6180 c6         1 FKF      -0.048700
      6 C6          11.7150     0.4040    26.8720 c6         1 FKF      -0.069400
      7 C5          10.2340     0.5960    27.3580 c6         1 FKF      -0.044700
      8 C4           9.2360     0.1790    26.2300 c6         1 FKF      -0.070400
      9 C2           7.5480     1.8850    26.9770 c6         1 FKF      -0.072400
     10 C1           8.4750     2.3330    28.1320 c6         1 FKF      -0.067400
     11 C10          9.9810     2.0610    27.8420 c6         1 FKF      -0.030000
     12 O4A         16.7890     8.4620    20.2780 o          1 FKF      -0.742000
     13 C24         15.6060     8.7700    20.2780 c          1 FKF       0.717000
     14 C23         14.8620     8.8040    21.6260 c3         1 FKF      -0.206400
     15 C22         14.2570     7.4070    21.9390 c3         1 FKF      -0.056400
     16 C20         13.7150     7.2020    23.3930 c3         1 FKF      -0.057700
     17 C21         12.5600     8.1930    23.6930 c3         1 FKF      -0.079100
     18 C17         13.2960     5.6770    23.6250 c5         1 FKF      -0.047700
     19 C13         12.7320     5.2330    25.0320 c5         1 FKF      -0.038000
     20 C18         13.6390     5.6990    26.2220 c3         1 FKF      -0.074100
     21 C12         11.2360     5.6440    25.3710 c6         1 FKF      -0.061400
     22 C16         14.4970     4.6730    23.4260 c5         1 FKF      -0.076400
     23 C15         14.1760     3.4220    24.3050 c5         1 FKF      -0.073400
     24 C14         12.7210     3.6860    24.7660 c5         1 FKF      -0.066700
     25 C11         10.5640     4.7970    26.5210 c6         1 FKF      -0.070400
     26 C19         10.7980     2.4020    29.1260 c3         1 FKF      -0.082100
     27 C29          7.2000    -0.5650    27.7480 c3         1 FKF      -0.096400
     28 C25          7.1480    -2.1080    27.4960 c3         1 FKF       0.184000
     29 C26          6.3900    -2.8000    28.6540 c3         1 FKF      -0.100600
     30 C27          6.4860    -2.4690    26.1450 c3         1 FKF      -0.100600
     31 O28          8.4710    -2.6420    27.4980 oh         1 FKF      -0.659000
     32 H8          12.7570     3.0340    26.8410 hc         1 FKF       0.046700
     33 H9          10.0830     3.0600    25.3320 hc         1 FKF       0.044700
     34 H7          11.6050     1.0740    24.7760 hc         1 FKF       0.039200
     35 H7A         13.2190     1.0130    25.4330 hc         1 FKF       0.039200
     36 H3           7.1340     0.1920    25.7280 hc         1 FKF       0.042700
     37 H6          11.8460    -0.6470    26.5790 hc         1 FKF       0.035200
     38 H6A         12.4040     0.5400    27.7150 hc         1 FKF       0.035200
     39 H5          10.0770    -0.0780    28.2110 hc         1 FKF       0.030700
     40 H4A          9.4150    -0.8600    25.9270 hc         1 FKF       0.049200
     41 H4           9.4280     0.7690    25.3250 hc         1 FKF       0.049200
     42 H2           7.7440     2.5050    26.0910 hc         1 FKF       0.038700
     43 H2A          6.5010     2.0730    27.2490 hc         1 FKF       0.038700
     44 H1           8.3270     3.4060    28.3130 hc         1 FKF       0.033700
     45 H1A          8.1760     1.8310    29.0610 hc         1 FKF       0.033700
     46 H23         15.5640     9.0220    22.4400 hc         1 FKF       0.014700
     47 H23A        14.0210     9.5030    21.5640 hc         1 FKF       0.014700
     48 H22         13.4580     7.1920    21.2190 hc         1 FKF       0.040200
     49 H22A        15.0450     6.6690    21.7490 hc         1 FKF       0.040200
     50 H20         14.5460     7.5130    24.0630 hc         1 FKF       0.037700
     51 H21         12.3680     8.2470    24.7680 hc         1 FKF       0.023367
     52 H21B        12.8050     9.2150    23.3880 hc         1 FKF       0.023367
     53 H21A        11.6390     7.8940    23.1790 hc         1 FKF       0.023367
     54 H17         12.5360     5.4730    22.8600 hc         1 FKF       0.041700
     55 H18         13.3560     5.2280    27.1690 hc         1 FKF       0.028700
     56 H18B        14.7000     5.4840    26.0620 hc         1 FKF       0.028700
     57 H18A        13.5600     6.7820    26.3710 hc         1 FKF       0.028700
     58 H12         11.1730     6.7000    25.6560 hc         1 FKF       0.040700
     59 H12A        10.6240     5.5440    24.4640 hc         1 FKF       0.040700
     60 H16         14.6070     4.3960    22.3720 hc         1 FKF       0.051200
     61 H16A        15.4520     5.1170    23.7320 hc         1 FKF       0.051200
     62 H15         14.2630     2.4910    23.7340 hc         1 FKF       0.032200
     63 H15A        14.8650     3.3370    25.1540 hc         1 FKF       0.032200
     64 H14         12.0470     3.4500    23.9310 hc         1 FKF       0.041700
     65 H11A        11.0360     5.0260    27.4850 hc         1 FKF       0.031700
     66 H11          9.5050     5.0720    26.6200 hc         1 FKF       0.031700
     67 H19A        10.5560     1.7160    29.9470 hc         1 FKF       0.029700
     68 H19         11.8780     2.3520    28.9580 hc         1 FKF       0.029700
     69 H19B        10.5790     3.4190    29.4700 hc         1 FKF       0.029700
     70 HO1B         7.7540    -0.3960    28.6780 hc         1 FKF       0.038200
     71 H31          6.1740    -0.2460    27.9720 hc         1 FKF       0.038200
     72 H262         6.8550    -2.5720    29.6210 hc         1 FKF       0.039200
     73 H26          5.3470    -2.4640    28.6930 hc         1 FKF       0.039200
     74 H261         6.3890    -3.8900    28.5280 hc         1 FKF       0.039200
     75 H272         6.3880    -3.5560    26.0370 hc         1 FKF       0.039200
     76 H27          5.4850    -2.0290    26.0730 hc         1 FKF       0.039200
     77 H271         7.0830    -2.1070    25.3000 hc         1 FKF       0.039200
     78 H30          8.9350    -2.2400    28.2620 ho         1 FKF       0.438000
@<TRIPOS>BOND
     1     1     2 1   
     2     1     3 1   
     3     1    24 1   
     4     1    32 1   
     5     2    11 1   
     6     2    25 1   
     7     2    33 1   
     8     3     6 1   
     9     3    34 1   
    10     3    35 1   
    11     4    13 1   
    12     5     8 1   
    13     5     9 1   
    14     5    27 1   
    15     5    36 1   
    16     6     7 1   
    17     6    37 1   
    18     6    38 1   
    19     7     8 1   
    20     7    11 1   
    21     7    39 1   
    22     8    40 1   
    23     8    41 1   
    24     9    10 1   
    25     9    42 1   
    26     9    43 1   
    27    10    11 1   
    28    10    44 1   
    29    10    45 1   
    30    11    26 1   
    31    12    13 1   
    32    13    14 1   
    33    14    15 1   
    34    14    46 1   
    35    14    47 1   
    36    15    16 1   
    37    15    48 1   
    38    15    49 1   
    39    16    17 1   
    40    16    18 1   
    41    16    50 1   
    42    17    51 1   
    43    17    52 1   
    44    17    53 1   
    45    18    19 1   
    46    18    22 1   
    47    18    54 1   
    48    19    20 1   
    49    19    21 1   
    50    19    24 1   
    51    20    55 1   
    52    20    56 1   
    53    20    57 1   
    54    21    25 1   
    55    21    58 1   
    56    21    59 1   
    57    22    23 1   
    58    22    60 1   
    59    22    61 1   
    60    23    24 1   
    61    23    62 1   
    62    23    63 1   
    63    24    64 1   
    64    25    65 1   
    65    25    66 1   
    66    26    67 1   
    67    26    68 1   
    68    26    69 1   
    69    27    28 1   
    70    27    70 1   
    71    27    71 1   
    72    28    29 1   
    73    28    30 1   
    74    28    31 1   
    75    29    72 1   
    76    29    73 1   
    77    29    74 1   
    78    30    75 1   
    79    30    76 1   
    80    30    77 1   
    81    31    78 1   
@<TRIPOS>SUBSTRUCTURE
     1 FKF         1 TEMP              0 ****  ****    0 ROOT
