@<TRIPOS>MOLECULE
FKG
   40    42     1     0     0
SMALL
abcg2


@<TRIPOS>ATOM
      1 C2           2.4260     1.7580     0.3030 cc         1 FKG       0.326300
      2 C3           0.2090    -0.4010     1.9920 c3         1 FKG       0.153600
      3 C5          -1.6550    -1.6540     0.8690 ca         1 FKG      -0.095000
      4 C7          -3.4440    -0.5360    -0.2750 ca         1 FKG      -0.189300
      5 C9          -1.6830     0.7380     0.7530 ca         1 FKG      -0.095000
      6 C10         -4.7000    -0.5610    -1.0860 c3         1 FKG       0.356300
      7 C11          0.0350     0.2950     3.3340 c3         1 FKG      -0.093100
      8 C12          2.8930     3.1380    -0.0020 c3         1 FKG       0.134300
      9 C13          3.9150     0.1290    -1.1420 c          1 FKG       0.622600
     10 O1           4.6700     0.8260    -1.7940 o          1 FKG      -0.528000
     11 C1           2.9180     0.5340    -0.2020 cc         1 FKG      -0.310600
     12 N2           3.9370    -1.2640    -1.2610 ns         1 FKG      -0.434400
     13 C14          3.1300    -2.1440    -0.6070 cc         1 FKG       0.529900
     14 N3           2.2180    -1.7780     0.2380 nd         1 FKG      -0.640100
     15 C            2.1430    -0.4410     0.4110 cd         1 FKG       0.143400
     16 N1           1.2840     0.2010     1.2190 na         1 FKG       0.136800
     17 N            1.4490     1.5310     1.1510 nd         1 FKG      -0.507800
     18 O            4.1940     3.2960     0.5200 oh         1 FKG      -0.646000
     19 C4          -1.0690    -0.4360     1.1840 ca         1 FKG      -0.081300
     20 C8          -2.8600     0.6910     0.0280 ca         1 FKG      -0.066000
     21 F2          -5.5950     0.3370    -0.6510 f          1 FKG      -0.113667
     22 F1          -4.4630    -0.2670    -2.3740 f          1 FKG      -0.113667
     23 F           -5.3020    -1.7550    -1.0670 f          1 FKG      -0.113667
     24 C6          -2.8390    -1.7110     0.1450 ca         1 FKG      -0.066000
     25 H1           0.5260    -1.4290     2.1730 h1         1 FKG       0.084700
     26 H2          -1.1880    -2.5770     1.1890 ha         1 FKG       0.130500
     27 H3          -1.2430     1.7010     0.9790 ha         1 FKG       0.130500
     28 H4          -0.7290    -0.2270     3.9080 hc         1 FKG       0.055033
     29 H5           0.9630     0.2700     3.9040 hc         1 FKG       0.055033
     30 H6          -0.2750     1.3320     3.2210 hc         1 FKG       0.055033
     31 H7           2.8770     3.2830    -1.0880 h1         1 FKG       0.039700
     32 H8           2.1840     3.8530     0.4310 h1         1 FKG       0.039700
     33 H9           4.3670    -3.8830    -0.7080 hc         1 FKG       0.069367
     34 H10          2.6660    -4.1970    -0.3250 hc         1 FKG       0.069367
     35 H11          3.1500    -3.7780    -1.9760 hc         1 FKG       0.069367
     36 H12          4.6160    -1.6440    -1.9100 hn         1 FKG       0.328500
     37 H13          4.5940     4.0580     0.0910 ho         1 FKG       0.448000
     38 H14         -3.3170     1.6190    -0.2920 ha         1 FKG       0.131000
     39 H15         -3.2700    -2.6770    -0.0820 ha         1 FKG       0.131000
     40 C15          3.3390    -3.5860    -0.9190 c3         1 FKG      -0.146400
@<TRIPOS>BOND
     1     1     8 1   
     2     1    11 1   
     3     1    17 2   
     4     2     7 1   
     5     2    16 1   
     6     2    19 1   
     7     2    25 1   
     8     3    19 ar  
     9     3    24 ar  
    10     3    26 1   
    11     4     6 1   
    12     4    20 ar  
    13     4    24 ar  
    14     5    19 ar  
    15     5    20 ar  
    16     5    27 1   
    17     6    21 1   
    18     6    22 1   
    19     6    23 1   
    20     7    28 1   
    21     7    29 1   
    22     7    30 1   
    23     8    18 1   
    24     8    31 1   
    25     8    32 1   
    26     9    10 2   
    27     9    11 1   
    28     9    12 1   
    29    11    15 2   
    30    12    13 1   
    31    12    36 1   
    32    13    14 2   
    33    13    40 1   
    34    14    15 1   
    35    15    16 1   
    36    16    17 1   
    37    18    37 1   
    38    20    38 1   
    39    24    39 1   
    40    33    40 1   
    41    34    40 1   
    42    35    40 1   
@<TRIPOS>SUBSTRUCTURE
     1 FKG         1 TEMP              0 ****  ****    0 ROOT
