@<TRIPOS>MOLECULE
FKG
   40    42     1     0     0
SMALL
No Charge or Current Charge


@<TRIPOS>ATOM
      1 C2           2.5190     1.7070     0.3150 cc         1 FKG       0.326300
      2 C3           0.1360    -0.3410     1.9960 c3         1 FKG       0.153600
      3 C5          -1.7810    -1.6570     0.9550 ca         1 FKG      -0.095000
      4 C7          -3.6170    -0.5610    -0.2330 ca         1 FKG      -0.189300
      5 C9          -1.8020     0.7600     0.7380 ca         1 FKG      -0.095000
      6 C10         -4.9260    -0.6430    -1.0270 c3         1 FKG       0.356300
      7 C11         -0.0530     0.3510     3.3670 c3         1 FKG      -0.093100
      8 C12          3.1660     3.0350    -0.0500 c3         1 FKG       0.134300
      9 C13          4.0120     0.1250    -1.0970 c          1 FKG       0.622600
     10 O1           4.7720     0.9070    -1.6410 o          1 FKG      -0.528000
     11 C1           2.9390     0.4560    -0.1770 cc         1 FKG      -0.310600
     12 N2           4.0730    -1.2130    -1.3000 ns         1 FKG      -0.434400
     13 C14          3.2340    -2.1300    -0.7170 cc         1 FKG       0.529900
     14 N3           2.2440    -1.8270     0.1290 nd         1 FKG      -0.640100
     15 C            2.1270    -0.4630     0.3820 cd         1 FKG       0.143400
     16 N1           1.2340     0.2420     1.1920 na         1 FKG       0.136800
     17 N            1.4860     1.6170     1.1440 nd         1 FKG      -0.507800
     18 O            4.3590     3.3030     0.7160 oh         1 FKG      -0.646000
     19 C4          -1.1790    -0.4110     1.2150 ca         1 FKG      -0.081300
     20 C8          -3.0070     0.6870     0.0200 ca         1 FKG      -0.066000
     21 F2          -5.7000     0.4540    -0.8590 f          1 FKG      -0.113667
     22 F1          -4.6900    -0.7610    -2.3520 f          1 FKG      -0.113667
     23 F           -5.6820    -1.7050    -0.6650 f          1 FKG      -0.113667
     24 C6          -2.9860    -1.7330     0.2370 ca         1 FKG      -0.066000
     25 H1           0.4440    -1.3710     2.2160 h1         1 FKG       0.084700
     26 H2          -1.3140    -2.5750     1.3070 ha         1 FKG       0.130500
     27 H3          -1.3520     1.7330     0.9210 ha         1 FKG       0.130500
     28 H4          -0.8140    -0.1750     3.9560 hc         1 FKG       0.055033
     29 H5           0.8840     0.3420     3.9340 hc         1 FKG       0.055033
     30 H6          -0.3740     1.3920     3.2470 hc         1 FKG       0.055033
     31 H7           3.3910     3.0370    -1.1240 h1         1 FKG       0.039700
     32 H8           2.4300     3.8340     0.1160 h1         1 FKG       0.039700
     33 H9           4.5320    -3.8360    -0.8240 hc         1 FKG       0.069367
     34 H10          2.8190    -4.2380    -0.6210 hc         1 FKG       0.069367
     35 H11          3.4100    -3.6770    -2.1940 hc         1 FKG       0.069367
     36 H12          4.7930    -1.5350    -1.9290 hn         1 FKG       0.328500
     37 H13          4.7170     4.1640     0.4020 ho         1 FKG       0.448000
     38 H14         -3.4630     1.6070    -0.3430 ha         1 FKG       0.131000
     39 H15         -3.4260    -2.7100     0.0440 ha         1 FKG       0.131000
     40 C15          3.5150    -3.5470    -1.1110 c3         1 FKG      -0.146400
@<TRIPOS>BOND
     1     1     8 1   
     2     1    11 1   
     3     1    17 2   
     4     2     7 1   
     5     2    16 1   
     6     2    19 1   
     7     2    25 1   
     8     3    19 ar  
     9     3    24 ar  
    10     3    26 1   
    11     4     6 1   
    12     4    20 ar  
    13     4    24 ar  
    14     5    19 ar  
    15     5    20 ar  
    16     5    27 1   
    17     6    21 1   
    18     6    22 1   
    19     6    23 1   
    20     7    28 1   
    21     7    29 1   
    22     7    30 1   
    23     8    18 1   
    24     8    31 1   
    25     8    32 1   
    26     9    10 2   
    27     9    11 1   
    28     9    12 1   
    29    11    15 2   
    30    12    13 1   
    31    12    36 1   
    32    13    14 2   
    33    13    40 1   
    34    14    15 1   
    35    15    16 1   
    36    16    17 1   
    37    18    37 1   
    38    20    38 1   
    39    24    39 1   
    40    33    40 1   
    41    34    40 1   
    42    35    40 1   
@<TRIPOS>SUBSTRUCTURE
     1 FKG         1 TEMP              0 ****  ****    0 ROOT
