@<TRIPOS>MOLECULE
FKH
   48    50     1     0     0
SMALL
abcg2


@<TRIPOS>ATOM
      1 CAY          5.8140    -0.0170    -2.3000 c3         1 FKH      -0.050800
      2 CAZ          5.3560    -0.3280    -0.9050 ca         1 FKH      -0.069300
      3 CAV          4.1890     0.2300    -0.3960 ca         1 FKH      -0.089000
      4 CBA          6.1060    -1.1700    -0.0820 ca         1 FKH      -0.101000
      5 CBB          5.6950    -1.4410     1.2130 ca         1 FKH      -0.104000
      6 CAX          4.5240    -0.8790     1.7070 ca         1 FKH      -0.116000
      7 CAW          3.7650    -0.0370     0.9030 ca         1 FKH      -0.128300
      8 CAT          2.5170     0.5960     1.4680 c3         1 FKH       0.133300
      9 NAO          1.4130     0.6700     0.5150 n          1 FKH      -0.333000
     10 CAP          0.6940    -0.4580     0.1990 cc         1 FKH       0.413600
     11 NAU          1.0940    -1.6180     0.7180 nv         1 FKH      -0.940000
     12 CAN          1.1000     1.9110    -0.0220 c          1 FKH       0.627000
     13 OAM          1.7500     2.9050     0.2290 o          1 FKH      -0.553000
     14 NAF          0.0230     1.9360    -0.8500 ns         1 FKH      -0.465500
     15 CAG         -0.7920     0.8680    -1.2130 c          1 FKH       0.605200
     16 OAA         -1.7020     1.0440    -2.0060 o          1 FKH      -0.543000
     17 CAH         -0.4300    -0.3710    -0.6070 cd         1 FKH      -0.273200
     18 NAI         -1.1290    -1.5550    -0.9240 nh         1 FKH      -0.574300
     19 CAB         -1.1840    -1.9910    -2.3200 c3         1 FKH       0.195100
     20 SAJ         -2.4300    -1.9030     0.0590 sy         1 FKH       1.150600
     21 OAQ         -3.0250    -3.1270    -0.4560 o          1 FKH      -0.547500
     22 OAC         -1.9460    -1.8630     1.4290 o          1 FKH      -0.547500
     23 CAK         -3.5870    -0.5820    -0.1400 ca         1 FKH      -0.279500
     24 CAR         -4.5050    -0.6400    -1.1810 ca         1 FKH      -0.007000
     25 CAS         -5.3720     0.4250    -1.3680 ca         1 FKH      -0.128000
     26 CAL         -5.3160     1.5280    -0.5250 ca         1 FKH      -0.053000
     27 CAE         -4.3980     1.5670     0.5160 ca         1 FKH      -0.128000
     28 CAD         -3.5260     0.5080     0.7170 ca         1 FKH      -0.007000
     29 HAY1         6.6520     0.6820    -2.2880 hc         1 FKH       0.046700
     30 HAY2         6.1540    -0.9150    -2.8170 hc         1 FKH       0.046700
     31 HAY3         5.0180     0.4320    -2.8920 hc         1 FKH       0.046700
     32 HAV          3.6030     0.8810    -1.0340 ha         1 FKH       0.121000
     33 HBA          7.0160    -1.6190    -0.4620 ha         1 FKH       0.117000
     34 HBB          6.2800    -2.1020     1.8390 ha         1 FKH       0.119000
     35 HAX          4.2030    -1.0970     2.7190 ha         1 FKH       0.115000
     36 HAT1         2.1780     0.0560     2.3530 h1         1 FKH       0.086200
     37 HAT2         2.7300     1.6110     1.7930 h1         1 FKH       0.086200
     38 HAU1         2.0270    -1.7600     1.0660 hn         1 FKH       0.511000
     39 HAU2         0.5990    -2.4460     0.4330 hn         1 FKH       0.511000
     40 HAF         -0.1910     2.8340    -1.2640 hn         1 FKH       0.347500
     41 HAB1        -1.3380    -3.0650    -2.3770 h1         1 FKH       0.053033
     42 HAB2        -1.9550    -1.4810    -2.8990 h1         1 FKH       0.053033
     43 HAB3        -0.2160    -1.7660    -2.7610 h1         1 FKH       0.053033
     44 HAR         -4.5520    -1.4990    -1.8350 ha         1 FKH       0.131000
     45 HAD         -2.8160     0.5380     1.5310 ha         1 FKH       0.131000
     46 HAS         -6.0950     0.3910    -2.1720 ha         1 FKH       0.115000
     47 HAL         -5.9950     2.3560    -0.6760 ha         1 FKH       0.113000
     48 HAE         -4.3600     2.4220     1.1770 ha         1 FKH       0.115000
@<TRIPOS>BOND
     1     1     2 1   
     2     1    29 1   
     3     1    30 1   
     4     1    31 1   
     5     2     3 ar  
     6     2     4 ar  
     7     3     7 ar  
     8     3    32 1   
     9     4     5 ar  
    10     4    33 1   
    11     5     6 ar  
    12     5    34 1   
    13     6     7 ar  
    14     6    35 1   
    15     7     8 1   
    16     8     9 1   
    17     8    36 1   
    18     8    37 1   
    19     9    10 1   
    20     9    12 1   
    21    10    11 1   
    22    10    17 2   
    23    11    38 1   
    24    11    39 1   
    25    12    13 2   
    26    12    14 1   
    27    14    15 1   
    28    14    40 1   
    29    15    16 2   
    30    15    17 1   
    31    17    18 1   
    32    18    19 1   
    33    18    20 1   
    34    19    41 1   
    35    19    42 1   
    36    19    43 1   
    37    20    21 2   
    38    20    22 2   
    39    20    23 1   
    40    23    24 ar  
    41    23    28 ar  
    42    24    25 ar  
    43    24    44 1   
    44    25    26 ar  
    45    25    46 1   
    46    26    27 ar  
    47    26    47 1   
    48    27    28 ar  
    49    27    48 1   
    50    28    45 1   
@<TRIPOS>SUBSTRUCTURE
     1 FKH         1 TEMP              0 ****  ****    0 ROOT
