@<TRIPOS>MOLECULE
FKH
   48    50     1     0     0
SMALL
No Charge or Current Charge


@<TRIPOS>ATOM
      1 CAY          6.0320     0.0080    -1.6030 c3         1 FKH      -0.050800
      2 CAZ          5.1540    -0.1070    -0.3660 ca         1 FKH      -0.069300
      3 CAV          3.9150     0.5590    -0.3140 ca         1 FKH      -0.089000
      4 CBA          5.5760    -0.8720     0.7370 ca         1 FKH      -0.101000
      5 CBB          4.7660    -0.9710     1.8800 ca         1 FKH      -0.104000
      6 CAX          3.5280    -0.3080     1.9270 ca         1 FKH      -0.116000
      7 CAW          3.0940     0.4590     0.8280 ca         1 FKH      -0.128300
      8 CAT          1.7450     1.1730     0.8720 c3         1 FKH       0.133300
      9 NAO          0.8720     0.8870    -0.3040 n          1 FKH      -0.333000
     10 CAP          0.2590    -0.3490    -0.4830 cc         1 FKH       0.413600
     11 NAU          0.5780    -1.3200     0.4070 nv         1 FKH      -0.940000
     12 CAN          0.6490     1.9230    -1.2250 c          1 FKH       0.627000
     13 OAM          1.1620     3.0260    -1.1420 o          1 FKH      -0.553000
     14 NAF         -0.1880     1.6460    -2.2490 ns         1 FKH      -0.465500
     15 CAG         -0.8540     0.4990    -2.5080 c          1 FKH       0.605200
     16 OAA         -1.5940     0.4140    -3.4750 o          1 FKH      -0.543000
     17 CAH         -0.6040    -0.5990    -1.5340 cd         1 FKH      -0.273200
     18 NAI         -1.2510    -1.8710    -1.6620 nh         1 FKH      -0.574300
     19 CAB         -1.1100    -2.6460    -2.9090 c3         1 FKH       0.195100
     20 SAJ         -2.4790    -2.4310    -0.5930 sy         1 FKH       1.150600
     21 OAQ         -3.5600    -2.9850    -1.4190 o          1 FKH      -0.547500
     22 OAC         -1.8070    -3.2350     0.4360 o          1 FKH      -0.547500
     23 CAK         -3.0280    -0.8650     0.1180 ca         1 FKH      -0.279500
     24 CAR         -3.8760    -0.0210    -0.6270 ca         1 FKH      -0.007000
     25 CAS         -4.2780     1.2170    -0.0960 ca         1 FKH      -0.128000
     26 CAL         -3.8360     1.6170     1.1760 ca         1 FKH      -0.053000
     27 CAE         -2.9880     0.7780     1.9190 ca         1 FKH      -0.128000
     28 CAD         -2.5830    -0.4620     1.3940 ca         1 FKH      -0.007000
     29 HAY1         6.6800     0.8890    -1.5410 hc         1 FKH       0.046700
     30 HAY2         6.6740    -0.8730    -1.7220 hc         1 FKH       0.046700
     31 HAY3         5.4280     0.0990    -2.5140 hc         1 FKH       0.046700
     32 HAV          3.5890     1.1550    -1.1640 ha         1 FKH       0.121000
     33 HBA          6.5340    -1.3870     0.7110 ha         1 FKH       0.117000
     34 HBB          5.0980    -1.5610     2.7310 ha         1 FKH       0.119000
     35 HAX          2.9120    -0.3890     2.8200 ha         1 FKH       0.115000
     36 HAT1         1.2020     0.8820     1.7820 h1         1 FKH       0.086200
     37 HAT2         1.9290     2.2500     0.9730 h1         1 FKH       0.086200
     38 HAU1         1.5170    -1.3090     0.7860 hn         1 FKH       0.511000
     39 HAU2         0.1920    -2.2370     0.2040 hn         1 FKH       0.511000
     40 HAF         -0.3430     2.3980    -2.9000 hn         1 FKH       0.347500
     41 HAB1        -1.0770    -3.7230    -2.6980 h1         1 FKH       0.053033
     42 HAB2        -1.9530    -2.4460    -3.5840 h1         1 FKH       0.053033
     43 HAB3        -0.1820    -2.3730    -3.4270 h1         1 FKH       0.053033
     44 HAR         -4.2140    -0.3150    -1.6200 ha         1 FKH       0.131000
     45 HAD         -1.9180    -1.0960     1.9770 ha         1 FKH       0.131000
     46 HAS         -4.9300     1.8680    -0.6740 ha         1 FKH       0.115000
     47 HAL         -4.1460     2.5760     1.5840 ha         1 FKH       0.113000
     48 HAE         -2.6420     1.0890     2.9010 ha         1 FKH       0.115000
@<TRIPOS>BOND
     1     1     2 1   
     2     1    29 1   
     3     1    30 1   
     4     1    31 1   
     5     2     3 ar  
     6     2     4 ar  
     7     3     7 ar  
     8     3    32 1   
     9     4     5 ar  
    10     4    33 1   
    11     5     6 ar  
    12     5    34 1   
    13     6     7 ar  
    14     6    35 1   
    15     7     8 1   
    16     8     9 1   
    17     8    36 1   
    18     8    37 1   
    19     9    10 1   
    20     9    12 1   
    21    10    11 1   
    22    10    17 2   
    23    11    38 1   
    24    11    39 1   
    25    12    13 2   
    26    12    14 1   
    27    14    15 1   
    28    14    40 1   
    29    15    16 2   
    30    15    17 1   
    31    17    18 1   
    32    18    19 1   
    33    18    20 1   
    34    19    41 1   
    35    19    42 1   
    36    19    43 1   
    37    20    21 2   
    38    20    22 2   
    39    20    23 1   
    40    23    24 ar  
    41    23    28 ar  
    42    24    25 ar  
    43    24    44 1   
    44    25    26 ar  
    45    25    46 1   
    46    26    27 ar  
    47    26    47 1   
    48    27    28 ar  
    49    27    48 1   
    50    28    45 1   
@<TRIPOS>SUBSTRUCTURE
     1 FKH         1 TEMP              0 ****  ****    0 ROOT
