@<TRIPOS>MOLECULE
FKI
   17    16     1     0     0
SMALL
bcc


@<TRIPOS>ATOM
      1 N            1.9390     1.0350    -0.3740 n8         1 FKI      -0.888800
      2 CA           0.6200     0.5620    -0.0160 c3         1 FKI       0.048500
      3 C            0.6240     0.0390     1.4110 c          1 FKI       0.434100
      4 O            1.6560    -0.2590     1.9620 o          1 FKI      -0.544100
      5 CB           0.0460    -0.5600    -0.9060 c3         1 FKI      -0.164400
      6 CG          -0.0850    -0.1590    -2.3500 c3         1 FKI       0.411900
      7 F1          -0.6560    -1.1730    -3.0650 f          1 FKI      -0.255800
      8 F2          -0.9170     0.9180    -2.4820 f          1 FKI      -0.255800
      9 CD          -0.7440    -0.1150     2.1370 c          1 FKI       0.860600
     10 OE1         -0.7170    -0.7610     3.1920 o          1 FKI      -0.796800
     11 OE2         -1.7090     0.4400     1.5840 o          1 FKI      -0.796800
     12 H2           1.9340     1.4580    -1.2920 hn         1 FKI       0.326800
     13 H1           2.6030     0.2710    -0.4030 hn         1 FKI       0.326800
     14 HA          -0.0710     1.4070    -0.0490 h1         1 FKI       0.104700
     15 HB2          0.7050    -1.4320    -0.8660 hc         1 FKI       0.079700
     16 HB1         -0.9360    -0.8660    -0.5400 hc         1 FKI       0.079700
     17 HG           0.8630     0.0910    -2.8290 h2         1 FKI       0.029700
@<TRIPOS>BOND
     1     1     2 1   
     2     1    12 1   
     3     1    13 1   
     4     2     3 1   
     5     2     5 1   
     6     2    14 1   
     7     3     4 2   
     8     3     9 1   
     9     5     6 1   
    10     5    15 1   
    11     5    16 1   
    12     6     7 1   
    13     6     8 1   
    14     6    17 1   
    15     9    10 1   
    16     9    11 1   
@<TRIPOS>SUBSTRUCTURE
     1 FKI         1 TEMP              0 ****  ****    0 ROOT
