@<TRIPOS>MOLECULE
FKI
   17    16     1     0     0
SMALL
No Charge or Current Charge


@<TRIPOS>ATOM
      1 N            1.9850     1.0390    -0.4650 n8         1 FKI      -0.999200
      2 CA           0.6580     0.5170     0.0080 c3         1 FKI       0.048500
      3 C            0.6290     0.0100     1.4970 c          1 FKI       0.434100
      4 O            1.6640    -0.3330     2.0830 o          1 FKI      -0.544100
      5 CB           0.1510    -0.5830    -0.9620 c3         1 FKI      -0.164400
      6 CG          -0.1480    -0.0960    -2.3980 c3         1 FKI       0.169300
      7 F1          -0.5600    -1.1370    -3.1550 f          1 FKI      -0.134500
      8 F2          -1.1530     0.8100    -2.3840 f          1 FKI      -0.134500
      9 CD          -0.8220    -0.0330     2.2140 c          1 FKI       0.650000
     10 OE1         -0.9600    -0.7300     3.2180 o          1 FKI      -0.691500
     11 OE2         -1.7360     0.6380     1.7410 o          1 FKI      -0.691500
     12 H2           1.9530     1.2060    -1.4770 hn         1 FKI       0.382000
     13 H1           2.6960     0.3060    -0.3520 hn         1 FKI       0.382000
     14 HA          -0.0610     1.3500    -0.0330 h1         1 FKI       0.104700
     15 HB2          0.8860    -1.3970    -1.0050 hc         1 FKI       0.079700
     16 HB1         -0.7690    -1.0230    -0.5570 hc         1 FKI       0.079700
     17 HG           0.7390     0.3520    -2.8590 h2         1 FKI       0.029700
@<TRIPOS>BOND
     1     1     2 1   
     2     1    12 1   
     3     1    13 1   
     4     2     3 1   
     5     2     5 1   
     6     2    14 1   
     7     3     4 2   
     8     3     9 1   
     9     5     6 1   
    10     5    15 1   
    11     5    16 1   
    12     6     7 1   
    13     6     8 1   
    14     6    17 1   
    15     9    10 1   
    16     9    11 1   
@<TRIPOS>SUBSTRUCTURE
     1 FKI         1 TEMP              0 ****  ****    0 ROOT
