@<TRIPOS>MOLECULE
FKJ
   38    40     1     0     0
SMALL
No Charge or Current Charge


@<TRIPOS>ATOM
      1 C2           2.9520     1.6870     0.7900 cc         1 FKJ       0.344300
      2 C3           0.0610     0.0970     2.1700 c3         1 FKJ       0.153600
      3 C5          -1.6870     0.5460     0.3610 ca         1 FKJ      -0.099500
      4 C7          -3.3230    -1.1490    -0.2950 ca         1 FKJ      -0.184300
      5 C9          -1.6790    -1.6220     1.4540 ca         1 FKJ      -0.099500
      6 C10         -4.4970    -1.5960    -1.1740 c3         1 FKJ       0.356300
      7 C11         -0.3990     1.1070     3.2480 c3         1 FKJ      -0.088100
      8 C12          4.1000     2.6860     0.7920 c3         1 FKJ       0.134300
      9 C13          3.4280     0.4840    -1.4840 c          1 FKJ       0.643600
     10 O2           4.4140     1.0770    -1.8840 o          1 FKJ      -0.514000
     11 C1           2.7170     0.7530    -0.2330 cc         1 FKJ      -0.322600
     12 N2           2.8540    -0.5350    -2.1990 ns         1 FKJ      -0.479500
     13 C14          1.7490    -1.2780    -1.8800 c          1 FKJ       0.633000
     14 O1           1.3210    -2.1620    -2.5950 o          1 FKJ      -0.547000
     15 N3           1.1620    -0.9450    -0.6910 ns         1 FKJ      -0.505600
     16 C            1.6330     0.0540     0.1220 cd         1 FKJ       0.065600
     17 N1           1.2100     0.5700     1.3500 na         1 FKJ       0.104800
     18 N            2.0590     1.6020     1.7700 nd         1 FKJ      -0.512800
     19 O            5.3430     2.1090     1.2470 oh         1 FKJ      -0.645000
     20 C4          -1.1310    -0.3330     1.3120 ca         1 FKJ      -0.098300
     21 C8          -2.7620    -2.0290     0.6560 ca         1 FKJ      -0.059000
     22 F2          -4.0620    -2.1710    -2.3170 f          1 FKJ      -0.110667
     23 F1          -5.2890    -2.5010    -0.5540 f          1 FKJ      -0.110667
     24 F           -5.2960    -0.5640    -1.5300 f          1 FKJ      -0.110667
     25 C6          -2.7700     0.1410    -0.4380 ca         1 FKJ      -0.059000
     26 H1           0.4230    -0.7900     2.7050 h1         1 FKJ       0.059700
     27 H2          -1.2760     1.5450     0.2330 ha         1 FKJ       0.128000
     28 H3          -1.2650    -2.3170     2.1820 ha         1 FKJ       0.128000
     29 H4          -0.7190     2.0500     2.7900 hc         1 FKJ       0.059367
     30 H5          -1.2430     0.6990     3.8170 hc         1 FKJ       0.059367
     31 H6           0.4100     1.3210     3.9560 hc         1 FKJ       0.059367
     32 H7           4.2150     3.0920    -0.2210 h1         1 FKJ       0.042700
     33 H8           3.8210     3.5290     1.4390 h1         1 FKJ       0.042700
     34 H9           3.3010    -0.7650    -3.0710 hn         1 FKJ       0.345500
     35 H10          0.3310    -1.4770    -0.4570 hn         1 FKJ       0.465000
     36 H11          6.0250     2.8160     1.2000 ho         1 FKJ       0.451000
     37 H12         -3.1620    -3.0340     0.7810 ha         1 FKJ       0.136000
     38 H13         -3.1740     0.8360    -1.1720 ha         1 FKJ       0.136000
@<TRIPOS>BOND
     1     1     8 1   
     2     1    11 1   
     3     1    18 2   
     4     2     7 1   
     5     2    17 1   
     6     2    20 1   
     7     2    26 1   
     8     3    20 ar  
     9     3    25 ar  
    10     3    27 1   
    11     4     6 1   
    12     4    21 ar  
    13     4    25 ar  
    14     5    20 ar  
    15     5    21 ar  
    16     5    28 1   
    17     6    22 1   
    18     6    23 1   
    19     6    24 1   
    20     7    29 1   
    21     7    30 1   
    22     7    31 1   
    23     8    19 1   
    24     8    32 1   
    25     8    33 1   
    26     9    10 2   
    27     9    11 1   
    28     9    12 1   
    29    11    16 2   
    30    12    13 1   
    31    12    34 1   
    32    13    14 2   
    33    13    15 1   
    34    15    16 1   
    35    15    35 1   
    36    16    17 1   
    37    17    18 1   
    38    19    36 1   
    39    21    37 1   
    40    25    38 1   
@<TRIPOS>SUBSTRUCTURE
     1 FKJ         1 TEMP              0 ****  ****    0 ROOT
