@<TRIPOS>MOLECULE
FKJ
   38    40     1     0     0
SMALL
abcg2


@<TRIPOS>ATOM
      1 C2           2.4570     1.7860     0.4040 cc         1 FKJ       0.344300
      2 C3           0.1670    -0.3620     2.0140 c3         1 FKJ       0.153600
      3 C5          -1.6410     0.7340     0.6310 ca         1 FKJ      -0.099500
      4 C7          -3.4640    -0.5430    -0.2770 ca         1 FKJ      -0.184300
      5 C9          -1.7600    -1.6290     1.0150 ca         1 FKJ      -0.099500
      6 C10         -4.7180    -0.5750    -1.0930 c3         1 FKJ       0.356300
      7 C11         -0.0250     0.3620     3.3370 c3         1 FKJ      -0.088100
      8 C12          3.0420     3.1430     0.2150 c3         1 FKJ       0.134300
      9 C13          3.6700     0.2290    -1.3530 c          1 FKJ       0.643600
     10 O2           4.4200     0.9580    -1.9670 o          1 FKJ      -0.514000
     11 C1           2.7880     0.5930    -0.2810 cc         1 FKJ      -0.322600
     12 N2           3.5810    -1.1290    -1.6630 ns         1 FKJ      -0.479500
     13 C14          2.7780    -2.0990    -1.1050 c          1 FKJ       0.633000
     14 O1           2.7940    -3.2530    -1.4740 o          1 FKJ      -0.547000
     15 N3           1.9480    -1.6620    -0.0980 ns         1 FKJ      -0.505600
     16 C            1.9710    -0.3610     0.2870 cd         1 FKJ       0.065600
     17 N1           1.2430     0.2350     1.2340 na         1 FKJ       0.104800
     18 N            1.5330     1.5530     1.3020 nd         1 FKJ      -0.512800
     19 O            4.3920     3.1060     0.6170 oh         1 FKJ      -0.645000
     20 C4          -1.1050    -0.4200     1.1970 ca         1 FKJ      -0.098300
     21 C8          -2.9380    -1.6970     0.2810 ca         1 FKJ      -0.059000
     22 F2          -4.4740    -0.2850    -2.3810 f          1 FKJ      -0.110667
     23 F1          -5.3200    -1.7670    -1.0690 f          1 FKJ      -0.110667
     24 F           -5.6120     0.3260    -0.6650 f          1 FKJ      -0.110667
     25 C6          -2.8110     0.6750    -0.1020 ca         1 FKJ      -0.059000
     26 H1           0.4840    -1.3840     2.2400 h1         1 FKJ       0.059700
     27 H2          -1.1460     1.6880     0.7580 ha         1 FKJ       0.128000
     28 H3          -1.3550    -2.5370     1.4470 ha         1 FKJ       0.128000
     29 H4          -0.3530     1.3900     3.1960 hc         1 FKJ       0.059367
     30 H5          -0.7840    -0.1630     3.9130 hc         1 FKJ       0.059367
     31 H6           0.8990     0.3650     3.9140 hc         1 FKJ       0.059367
     32 H7           2.9420     3.4250    -0.8380 h1         1 FKJ       0.042700
     33 H8           2.4560     3.8610     0.8010 h1         1 FKJ       0.042700
     34 H9           4.1760    -1.4560    -2.4140 hn         1 FKJ       0.345500
     35 H10          1.3430    -2.3460     0.3330 hn         1 FKJ       0.465000
     36 H11          4.8460     3.8430     0.2000 ho         1 FKJ       0.451000
     37 H12         -3.4220    -2.6550     0.1550 ha         1 FKJ       0.136000
     38 H13         -3.2080     1.5860    -0.5330 ha         1 FKJ       0.136000
@<TRIPOS>BOND
     1     1     8 1   
     2     1    11 1   
     3     1    18 2   
     4     2     7 1   
     5     2    17 1   
     6     2    20 1   
     7     2    26 1   
     8     3    20 ar  
     9     3    25 ar  
    10     3    27 1   
    11     4     6 1   
    12     4    21 ar  
    13     4    25 ar  
    14     5    20 ar  
    15     5    21 ar  
    16     5    28 1   
    17     6    22 1   
    18     6    23 1   
    19     6    24 1   
    20     7    29 1   
    21     7    30 1   
    22     7    31 1   
    23     8    19 1   
    24     8    32 1   
    25     8    33 1   
    26     9    10 2   
    27     9    11 1   
    28     9    12 1   
    29    11    16 2   
    30    12    13 1   
    31    12    34 1   
    32    13    14 2   
    33    13    15 1   
    34    15    16 1   
    35    15    35 1   
    36    16    17 1   
    37    17    18 1   
    38    19    36 1   
    39    21    37 1   
    40    25    38 1   
@<TRIPOS>SUBSTRUCTURE
     1 FKJ         1 TEMP              0 ****  ****    0 ROOT
