@<TRIPOS>MOLECULE
FKK
   46    48     1     0     0
SMALL
No Charge or Current Charge


@<TRIPOS>ATOM
      1 C1          -4.9290    -0.0750    -0.0340 ca         1 FKK      -0.259500
      2 N2           0.2020    -0.6920    -0.6480 n          1 FKK      -0.402800
      3 C2          -4.0550     0.3240    -1.0640 ca         1 FKK      -0.015000
      4 O2          -7.2190     0.3700     1.3100 o          1 FKK      -0.543000
      5 N3           2.6790     0.7050     0.1630 n3         1 FKK      -0.721600
      6 C3          -2.7220    -0.1200    -1.0710 ca         1 FKK      -0.102000
      7 O3          -0.5480    -2.5870     0.4070 o          1 FKK      -0.587100
      8 S1          -6.6350     0.4910    -0.0240 sy         1 FKK       1.125600
      9 O1          -6.7920     1.6940    -0.8380 o          1 FKK      -0.543000
     10 C6          -4.4610    -0.9340     0.9810 ca         1 FKK      -0.015000
     11 C5          -3.1260    -1.3760     0.9690 ca         1 FKK      -0.102000
     12 C4          -2.2330    -0.9600    -0.0430 ca         1 FKK      -0.088600
     13 C7          -0.8060    -1.4740    -0.0390 c          1 FKK       0.609700
     14 C11          0.2410     0.7940    -0.5040 c6         1 FKK       0.095000
     15 C10          1.3360     1.2570     0.4980 c6         1 FKK       0.140800
     16 C8           1.5500    -1.2570    -0.9430 c6         1 FKK       0.095000
     17 C9           2.6220    -0.7850     0.0750 c6         1 FKK       0.140800
     18 C12          3.7360     1.1960     1.0780 c3         1 FKK       0.218100
     19 C13          5.1410     0.7880     0.6480 ca         1 FKK      -0.106300
     20 C14          5.6920     1.3050    -0.5420 ca         1 FKK      -0.072000
     21 C15          6.9860     0.9300    -0.9450 ca         1 FKK      -0.155000
     22 C16          7.7310     0.0380    -0.1590 ca         1 FKK       0.173000
     23 F            8.9740    -0.3220    -0.5470 f          1 FKK      -0.179000
     24 C17          7.1920    -0.4820     1.0270 ca         1 FKK      -0.155000
     25 C18          5.8970    -0.1090     1.4310 ca         1 FKK      -0.072000
     26 N1          -7.4100    -0.6560    -0.8850 n8         1 FKK      -1.005100
     27 H1          -4.4070     0.9720    -1.8670 ha         1 FKK       0.140500
     28 H3          -2.0750     0.1790    -1.8930 ha         1 FKK       0.129500
     29 H4          -5.1260    -1.2630     1.7770 ha         1 FKK       0.140500
     30 H5          -2.7830    -2.0400     1.7590 ha         1 FKK       0.129500
     31 H6           0.4390     1.2420    -1.4870 h1         1 FKK       0.065700
     32 H7          -0.7230     1.1860    -0.1530 h1         1 FKK       0.065700
     33 H8           1.0400     0.9420     1.5100 h1         1 FKK       0.044950
     34 H9           1.3650     2.3570     0.5010 h1         1 FKK       0.044950
     35 H10          1.5190    -2.3560    -0.9570 h1         1 FKK       0.065700
     36 H11          1.8530    -0.9350    -1.9490 h1         1 FKK       0.065700
     37 H12          3.5950    -1.1940    -0.2350 h1         1 FKK       0.044950
     38 H13          2.3900    -1.2160     1.0600 h1         1 FKK       0.044950
     39 H14          3.7050     2.2930     1.1240 h1         1 FKK       0.040700
     40 H15          3.5480     0.8320     2.0980 h1         1 FKK       0.040700
     41 H16          5.1120     1.9930    -1.1540 ha         1 FKK       0.122000
     42 H17          7.4100     1.3280    -1.8640 ha         1 FKK       0.132000
     43 H18          7.7750    -1.1740     1.6290 ha         1 FKK       0.132000
     44 H19          5.4820    -0.5170     2.3510 ha         1 FKK       0.122000
     45 H20         -8.1570    -0.8960    -0.2370 hn         1 FKK       0.476000
     46 H21         -7.8970    -0.0760    -1.5640 hn         1 FKK       0.476000
@<TRIPOS>BOND
     1     1     3 ar  
     2     1     8 1   
     3     1    10 ar  
     4     2    13 1   
     5     2    14 1   
     6     2    16 1   
     7     3     6 ar  
     8     3    27 1   
     9     4     8 2   
    10     5    15 1   
    11     5    17 1   
    12     5    18 1   
    13     6    12 ar  
    14     6    28 1   
    15     7    13 2   
    16     8     9 2   
    17     8    26 1   
    18    10    11 ar  
    19    10    29 1   
    20    11    12 ar  
    21    11    30 1   
    22    12    13 1   
    23    14    15 1   
    24    14    31 1   
    25    14    32 1   
    26    15    33 1   
    27    15    34 1   
    28    16    17 1   
    29    16    35 1   
    30    16    36 1   
    31    17    37 1   
    32    17    38 1   
    33    18    19 1   
    34    18    39 1   
    35    18    40 1   
    36    19    20 ar  
    37    19    25 ar  
    38    20    21 ar  
    39    20    41 1   
    40    21    22 ar  
    41    21    42 1   
    42    22    23 1   
    43    22    24 ar  
    44    24    25 ar  
    45    24    43 1   
    46    25    44 1   
    47    26    45 1   
    48    26    46 1   
@<TRIPOS>SUBSTRUCTURE
     1 FKK         1 TEMP              0 ****  ****    0 ROOT
