@<TRIPOS>MOLECULE
FKK
   46    48     1     0     0
SMALL
abcg2


@<TRIPOS>ATOM
      1 C1          -4.7110     0.0160    -0.0110 ca         1 FKK      -0.259500
      2 N2           0.2340    -0.7800    -0.7370 n          1 FKK      -0.402800
      3 C2          -4.0250     0.2250    -1.2010 ca         1 FKK      -0.015000
      4 O2          -6.7290     0.5590     1.5600 o          1 FKK      -0.543000
      5 N3           2.5500     0.5550     0.2240 n3         1 FKK      -0.721600
      6 C3          -2.7390    -0.2660    -1.3300 ca         1 FKK      -0.102000
      7 O3          -0.6960    -2.8110    -0.3500 o          1 FKK      -0.587100
      8 S1          -6.3350     0.7010     0.1650 sy         1 FKK       1.125600
      9 O1          -6.3600     2.0300    -0.4280 o          1 FKK      -0.543000
     10 C6          -4.1390    -0.6850     1.0380 ca         1 FKK      -0.015000
     11 C5          -2.8570    -1.1930     0.8900 ca         1 FKK      -0.102000
     12 C4          -2.1480    -0.9700    -0.2830 ca         1 FKK      -0.088600
     13 C7          -0.7950    -1.5960    -0.4480 c          1 FKK       0.609700
     14 C11          0.2360     0.6630    -0.5620 c6         1 FKK       0.095000
     15 C10          1.2240     1.0580     0.5230 c6         1 FKK       0.140800
     16 C8           1.5620    -1.3130    -0.9930 c6         1 FKK       0.095000
     17 C9           2.5290    -0.8910     0.0980 c6         1 FKK       0.140800
     18 C12          3.5280     1.0090     1.1910 c3         1 FKK       0.218100
     19 C13          4.9390     0.7290     0.7470 ca         1 FKK      -0.106300
     20 C14          5.3620     1.1000    -0.5280 ca         1 FKK      -0.072000
     21 C15          6.6620     0.8690    -0.9480 ca         1 FKK      -0.155000
     22 C16          7.5410     0.2560    -0.0730 ca         1 FKK       0.173000
     23 F            8.8030     0.0250    -0.4740 f          1 FKK      -0.179000
     24 C17          7.1610    -0.1260     1.1970 ca         1 FKK      -0.155000
     25 C18          5.8510     0.1130     1.5960 ca         1 FKK      -0.072000
     26 N1          -7.2030    -0.2660    -0.8520 n8         1 FKK      -1.005100
     27 H1          -4.4810     0.7640    -2.0210 ha         1 FKK       0.140500
     28 H3          -2.1970    -0.0990    -2.2520 ha         1 FKK       0.129500
     29 H4          -4.6770    -0.8420     1.9630 ha         1 FKK       0.140500
     30 H5          -2.4080    -1.7480     1.7020 ha         1 FKK       0.129500
     31 H6           0.5130     1.1380    -1.5070 h1         1 FKK       0.065700
     32 H7          -0.7530     1.0220    -0.2880 h1         1 FKK       0.065700
     33 H8           0.8520     0.6930     1.4960 h1         1 FKK       0.044950
     34 H9           1.2580     2.1480     0.5800 h1         1 FKK       0.044950
     35 H10          1.5190    -2.3960    -1.0620 h1         1 FKK       0.065700
     36 H11          1.9060    -0.9250    -1.9560 h1         1 FKK       0.065700
     37 H12          3.5260    -1.2480    -0.1670 h1         1 FKK       0.044950
     38 H13          2.2480    -1.3780     1.0480 h1         1 FKK       0.044950
     39 H14          3.4000     2.0900     1.3110 h1         1 FKK       0.040700
     40 H15          3.3610     0.5690     2.1880 h1         1 FKK       0.040700
     41 H16          4.6610     1.5700    -1.2070 ha         1 FKK       0.122000
     42 H17          6.9870     1.1600    -1.9380 ha         1 FKK       0.132000
     43 H18          7.8660    -0.6090     1.8610 ha         1 FKK       0.132000
     44 H19          5.5420    -0.1930     2.5880 ha         1 FKK       0.122000
     45 H20         -7.3860    -1.1850    -0.4630 hn         1 FKK       0.476000
     46 H21         -8.0710     0.1780    -1.1350 hn         1 FKK       0.476000
@<TRIPOS>BOND
     1     1     3 ar  
     2     1     8 1   
     3     1    10 ar  
     4     2    13 1   
     5     2    14 1   
     6     2    16 1   
     7     3     6 ar  
     8     3    27 1   
     9     4     8 2   
    10     5    15 1   
    11     5    17 1   
    12     5    18 1   
    13     6    12 ar  
    14     6    28 1   
    15     7    13 2   
    16     8     9 2   
    17     8    26 1   
    18    10    11 ar  
    19    10    29 1   
    20    11    12 ar  
    21    11    30 1   
    22    12    13 1   
    23    14    15 1   
    24    14    31 1   
    25    14    32 1   
    26    15    33 1   
    27    15    34 1   
    28    16    17 1   
    29    16    35 1   
    30    16    36 1   
    31    17    37 1   
    32    17    38 1   
    33    18    19 1   
    34    18    39 1   
    35    18    40 1   
    36    19    20 ar  
    37    19    25 ar  
    38    20    21 ar  
    39    20    41 1   
    40    21    22 ar  
    41    21    42 1   
    42    22    23 1   
    43    22    24 ar  
    44    24    25 ar  
    45    24    43 1   
    46    25    44 1   
    47    26    45 1   
    48    26    46 1   
@<TRIPOS>SUBSTRUCTURE
     1 FKK         1 TEMP              0 ****  ****    0 ROOT
