@<TRIPOS>MOLECULE
FKL
   59    63     1     0     0
SMALL
No Charge or Current Charge


@<TRIPOS>ATOM
      1 N1           3.3700    -0.8070    -0.8520 nb         1 FKL      -0.262000
      2 N3           3.1410     1.2310     0.3940 nb         1 FKL      -0.319000
      3 C4           2.0470    -0.8020    -1.0920 ca         1 FKL       0.206900
      4 C5           1.2130     0.2190    -0.6000 ca         1 FKL      -0.305800
      5 C6           1.8150     1.2340     0.1470 ca         1 FKL       0.316900
      6 C8          -0.3850     2.3200     0.5000 c          1 FKL       0.571200
      7 C10         -0.2160     0.2120    -0.8670 cc         1 FKL      -0.035200
      8 C15         -3.1290     0.0110    -0.3810 ca         1 FKL      -0.041000
      9 C17         -5.2530     1.0320    -0.9550 ca         1 FKL      -0.079000
     10 C24         -7.3740    -2.6540    -0.1960 cx         1 FKL       0.051700
     11 C26         -8.8710    -2.4730    -0.1600 cx         1 FKL      -0.136400
     12 C28          7.6060    -0.1820    -0.1240 c6         1 FKL      -0.132400
     13 O22         -4.5690    -2.4200     0.1080 o          1 FKL      -0.599100
     14 N23         -6.5670    -1.4850    -0.4230 ns         1 FKL      -0.482900
     15 C25         -8.1140    -2.7490     1.1160 cx         1 FKL      -0.136400
     16 C16         -4.5280    -0.1060    -0.5390 ca         1 FKL      -0.157600
     17 C18         -4.5880     2.2380    -1.2190 ca         1 FKL      -0.126000
     18 C19         -3.1940     2.3510    -1.0640 ca         1 FKL      -0.019300
     19 C14         -2.4500     1.2280    -0.6120 ca         1 FKL      -0.043800
     20 C9          -0.9800     1.2700    -0.4000 cd         1 FKL      -0.164400
     21 O13         -1.0720     3.1540     1.0760 o          1 FKL      -0.531000
     22 N7           1.0160     2.2870     0.6820 n          1 FKL      -0.364300
     23 C12          1.6670     3.3530     1.4950 c3         1 FKL       0.079300
     24 C2           3.8450     0.2130    -0.1160 ca         1 FKL       0.430900
     25 N11          5.2030     0.2560     0.1580 nu         1 FKL      -0.906100
     26 C27          6.1870    -0.7930    -0.1520 c6         1 FKL       0.246500
     27 C32          6.0790    -1.9460     0.8760 c6         1 FKL      -0.132400
     28 C31          7.2090    -2.9730     0.6420 c6         1 FKL       0.157100
     29 O30          8.4910    -2.3100     0.6920 os         1 FKL      -0.448000
     30 C29          8.6660    -1.2910    -0.3160 c6         1 FKL       0.157100
     31 H4           1.6530    -1.6260    -1.6840 h4         1 FKL       0.026100
     32 H10         -0.6710    -0.5740    -1.4660 ha         1 FKL       0.195000
     33 H15         -2.5640    -0.8520    -0.0360 ha         1 FKL       0.137000
     34 H17         -6.3300     1.0000    -1.0940 ha         1 FKL       0.108000
     35 H20         -2.5910     4.4120    -0.6940 hc         1 FKL       0.049367
     36 H20A        -1.4910     3.5330    -1.7790 hc         1 FKL       0.049367
     37 H20B        -3.0520     4.0880    -2.3660 hc         1 FKL       0.049367
     38 H24         -6.9770    -3.5720    -0.6330 h1         1 FKL       0.088700
     39 H26         -9.2730    -1.4730    -0.3050 hc         1 FKL       0.077450
     40 H26A        -9.4840    -3.2730    -0.5690 hc         1 FKL       0.077450
     41 H28          7.7110     0.5720    -0.9150 hc         1 FKL       0.058950
     42 H28A         7.7870     0.3290     0.8320 hc         1 FKL       0.058950
     43 HN23        -7.0130    -0.6320    -0.7290 hn         1 FKL       0.319500
     44 H25         -8.2160    -3.7340     1.5650 hc         1 FKL       0.077450
     45 H25A        -8.0000    -1.9340     1.8260 hc         1 FKL       0.077450
     46 H18         -5.1630     3.0930    -1.5670 ha         1 FKL       0.114000
     47 H12          1.0130     4.2240     1.6220 h1         1 FKL       0.059367
     48 H12A         1.9230     2.9550     2.4860 h1         1 FKL       0.059367
     49 H12B         2.5840     3.6990     1.0010 h1         1 FKL       0.059367
     50 HN11         5.4970     1.0480     0.7270 hn         1 FKL       0.505000
     51 H27          6.0150    -1.1970    -1.1630 h1         1 FKL       0.081700
     52 H32          6.1510    -1.5520     1.8990 hc         1 FKL       0.058950
     53 H32A         5.1050    -2.4430     0.7930 hc         1 FKL       0.058950
     54 H31          7.1780    -3.7510     1.4180 h1         1 FKL       0.048950
     55 H31A         7.0890    -3.4610    -0.3370 h1         1 FKL       0.048950
     56 H29          8.5730    -1.7440    -1.3140 h1         1 FKL       0.048950
     57 H29A         9.6760    -0.8660    -0.2250 h1         1 FKL       0.048950
     58 C20         -2.5410     3.6640    -1.4940 c3         1 FKL      -0.055800
     59 C21         -5.2000    -1.4350    -0.2540 c          1 FKL       0.616700
@<TRIPOS>BOND
     1     1     3 ar  
     2     1    24 ar  
     3     2     5 ar  
     4     2    24 ar  
     5     3     4 ar  
     6     3    31 1   
     7     4     5 ar  
     8     4     7 1   
     9     5    22 1   
    10     6    20 1   
    11     6    21 2   
    12     6    22 1   
    13     7    20 2   
    14     7    32 1   
    15     8    16 ar  
    16     8    19 ar  
    17     8    33 1   
    18     9    16 ar  
    19     9    17 ar  
    20     9    34 1   
    21    10    11 1   
    22    10    14 1   
    23    10    15 1   
    24    10    38 1   
    25    11    15 1   
    26    11    39 1   
    27    11    40 1   
    28    12    26 1   
    29    12    30 1   
    30    12    41 1   
    31    12    42 1   
    32    13    59 2   
    33    14    43 1   
    34    14    59 1   
    35    15    44 1   
    36    15    45 1   
    37    16    59 1   
    38    17    18 ar  
    39    17    46 1   
    40    18    19 ar  
    41    18    58 1   
    42    19    20 1   
    43    22    23 1   
    44    23    47 1   
    45    23    48 1   
    46    23    49 1   
    47    24    25 1   
    48    25    26 1   
    49    25    50 1   
    50    26    27 1   
    51    26    51 1   
    52    27    28 1   
    53    27    52 1   
    54    27    53 1   
    55    28    29 1   
    56    28    54 1   
    57    28    55 1   
    58    29    30 1   
    59    30    56 1   
    60    30    57 1   
    61    35    58 1   
    62    36    58 1   
    63    37    58 1   
@<TRIPOS>SUBSTRUCTURE
     1 FKL         1 TEMP              0 ****  ****    0 ROOT
