@<TRIPOS>MOLECULE
FKL
   59    63     1     0     0
SMALL
bcc


@<TRIPOS>ATOM
      1 N1           3.4620    -0.6440    -0.9240 nb         1 FKL      -0.788000
      2 N3           2.9560     1.0830     0.6430 nb         1 FKL      -0.845000
      3 C4           2.2020    -0.6530    -1.2880 ca         1 FKL       0.535200
      4 C5           1.2310     0.1790    -0.7320 ca         1 FKL      -0.436400
      5 C6           1.6920     1.0580     0.2660 ca         1 FKL       0.645200
      6 C8          -0.5520     1.9270     0.5480 c          1 FKL       0.713700
      7 C10         -0.1370     0.1890    -1.1050 cc         1 FKL       0.014800
      8 C15         -3.2280    -0.0420    -0.5270 ca         1 FKL      -0.059000
      9 C17         -5.1470     0.9820    -1.5230 ca         1 FKL      -0.097000
     10 C24         -7.5340    -2.2710    -0.0040 cx         1 FKL       0.051700
     11 C26         -8.7550    -1.9830     0.8060 cx         1 FKL      -0.136400
     12 C28          7.4810     0.0230     0.1730 c6         1 FKL      -0.132400
     13 O22         -4.7840    -2.3670    -0.2030 o          1 FKL      -0.599100
     14 N23         -6.6870    -1.1740    -0.3380 ns         1 FKL      -0.549900
     15 C25         -7.6090    -2.7310     1.4180 cx         1 FKL      -0.136400
     16 C16         -4.5850    -0.0900    -0.8370 ca         1 FKL      -0.157600
     17 C18         -4.3640     2.0700    -1.8760 ca         1 FKL      -0.144000
     18 C19         -3.0130     2.1350    -1.5510 ca         1 FKL      -0.019300
     19 C14         -2.4450     1.0550    -0.8600 ca         1 FKL      -0.043800
     20 C9          -1.0070     1.0350    -0.5120 cd         1 FKL      -0.164400
     21 O13         -1.3040     2.6700     1.1600 o          1 FKL      -0.606500
     22 N7           0.8020     1.9060     0.8660 n          1 FKL      -0.431300
     23 C12          1.2360     2.8220     1.9140 c3         1 FKL       0.079300
     24 C2           3.7950     0.2380     0.0390 ca         1 FKL       0.956900
     25 N11          5.0760     0.2880     0.4230 nu         1 FKL      -0.850900
     26 C27          6.1130    -0.6230    -0.0150 c6         1 FKL       0.246500
     27 C32          6.0710    -1.9570     0.7300 c6         1 FKL      -0.132400
     28 C31          7.2550    -2.8220     0.3270 c6         1 FKL       0.133900
     29 O30          8.4850    -2.1630     0.5410 os         1 FKL      -0.401600
     30 C29          8.5770    -0.9650    -0.1970 c6         1 FKL       0.133900
     31 H4           1.9200    -1.3570    -2.0640 h4         1 FKL       0.026100
     32 H10         -0.4740    -0.4860    -1.8830 ha         1 FKL       0.145000
     33 H15         -2.7730    -0.8720    -0.0030 ha         1 FKL       0.155000
     34 H17         -6.1880     0.9780    -1.8220 ha         1 FKL       0.126000
     35 H20         -1.9630     3.9530    -1.0990 hc         1 FKL       0.049367
     36 H20A        -1.2470     3.0250    -2.4060 hc         1 FKL       0.049367
     37 H20B        -2.7320     3.9380    -2.6810 hc         1 FKL       0.049367
     38 H24         -7.6180    -3.0330    -0.7720 h1         1 FKL       0.088700
     39 H26         -8.9190    -0.9620     1.1260 hc         1 FKL       0.077450
     40 H26A        -9.6580    -2.5240     0.5590 hc         1 FKL       0.077450
     41 H28          7.5720     0.9140    -0.4520 hc         1 FKL       0.058950
     42 H28A         7.6050     0.3370     1.2160 hc         1 FKL       0.058950
     43 HN23        -7.1180    -0.2830    -0.5200 hn         1 FKL       0.319500
     44 H25         -7.7190    -3.7930     1.5970 hc         1 FKL       0.077450
     45 H25A        -6.9980    -2.2100     2.1430 hc         1 FKL       0.077450
     46 H18         -4.8160     2.8850    -2.4280 ha         1 FKL       0.132000
     47 H12          0.9330     3.8370     1.6710 h1         1 FKL       0.059367
     48 H12A         0.7960     2.5420     2.8700 h1         1 FKL       0.059367
     49 H12B         2.3140     2.7800     1.9950 h1         1 FKL       0.059367
     50 HN11         5.2810     0.8970     1.2000 hn         1 FKL       0.449800
     51 H27          5.9630    -0.8130    -1.0810 h1         1 FKL       0.081700
     52 H32          6.0940    -1.7730     1.8080 hc         1 FKL       0.058950
     53 H32A         5.1420    -2.4870     0.5050 hc         1 FKL       0.058950
     54 H31          7.2770    -3.7400     0.9150 h1         1 FKL       0.048950
     55 H31A         7.1570    -3.1120    -0.7300 h1         1 FKL       0.048950
     56 H29          8.5270    -1.1770    -1.2750 h1         1 FKL       0.048950
     57 H29A         9.5590    -0.5370     0.0070 h1         1 FKL       0.048950
     58 C20         -2.1960     3.3230    -1.9590 c3         1 FKL      -0.055800
     59 C21         -5.3520    -1.3090    -0.4360 c          1 FKL       0.683700
@<TRIPOS>BOND
     1     1     3 ar  
     2     1    24 ar  
     3     2     5 ar  
     4     2    24 ar  
     5     3     4 ar  
     6     3    31 1   
     7     4     5 ar  
     8     4     7 1   
     9     5    22 1   
    10     6    20 1   
    11     6    21 2   
    12     6    22 1   
    13     7    20 2   
    14     7    32 1   
    15     8    16 ar  
    16     8    19 ar  
    17     8    33 1   
    18     9    16 ar  
    19     9    17 ar  
    20     9    34 1   
    21    10    11 1   
    22    10    14 1   
    23    10    15 1   
    24    10    38 1   
    25    11    15 1   
    26    11    39 1   
    27    11    40 1   
    28    12    26 1   
    29    12    30 1   
    30    12    41 1   
    31    12    42 1   
    32    13    59 2   
    33    14    43 1   
    34    14    59 1   
    35    15    44 1   
    36    15    45 1   
    37    16    59 1   
    38    17    18 ar  
    39    17    46 1   
    40    18    19 ar  
    41    18    58 1   
    42    19    20 1   
    43    22    23 1   
    44    23    47 1   
    45    23    48 1   
    46    23    49 1   
    47    24    25 1   
    48    25    26 1   
    49    25    50 1   
    50    26    27 1   
    51    26    51 1   
    52    27    28 1   
    53    27    52 1   
    54    27    53 1   
    55    28    29 1   
    56    28    54 1   
    57    28    55 1   
    58    29    30 1   
    59    30    56 1   
    60    30    57 1   
    61    35    58 1   
    62    36    58 1   
    63    37    58 1   
@<TRIPOS>SUBSTRUCTURE
     1 FKL         1 TEMP              0 ****  ****    0 ROOT
