@<TRIPOS>MOLECULE
FKM
   60    62     1     0     0
SMALL
abcg2


@<TRIPOS>ATOM
      1 O16          1.2720    -0.4370     1.6790 o          1 FKM      -0.518000
      2 S14          0.2620    -1.4830     1.6310 s6         1 FKM       1.193100
      3 O15         -0.3990    -1.8990     2.8590 o          1 FKM      -0.518000
      4 C13         -1.0010    -0.9740     0.4660 c3         1 FKM      -0.354400
      5 C12         -1.6330     0.3500     0.8710 c3         1 FKM      -0.045400
      6 C11         -2.6980     0.7410    -0.1360 c3         1 FKM       0.155600
      7 O10         -3.2460     1.9840     0.2590 os         1 FKM      -0.434000
      8 C9          -4.0230     2.6040    -0.7040 c3         1 FKM       0.335000
      9 N4          -5.2950     1.9290    -0.9360 n          1 FKM      -0.352000
     10 C3          -6.3000     2.0790     0.0020 c          1 FKM       0.617000
     11 O8          -6.1780     2.7740     0.9870 o          1 FKM      -0.535000
     12 N2          -7.4470     1.3820    -0.2740 ns         1 FKM      -0.471500
     13 C5          -5.4670     1.1310    -2.0300 cc         1 FKM      -0.003400
     14 C6          -6.5990     0.4540    -2.2800 cd         1 FKM      -0.375200
     15 C1          -7.7040     0.5560    -1.3580 c          1 FKM       0.590200
     16 O7          -8.7790    -0.0020    -1.4680 o          1 FKM      -0.522000
     17 N17          0.9760    -2.8170     0.9910 n7         1 FKM      -0.883300
     18 C18          1.8640    -2.6840    -0.1660 c3         1 FKM       0.278800
     19 C19          1.9380    -4.0390    -0.8610 c3         1 FKM      -0.103100
     20 C20          3.2430    -2.2240     0.2440 ca         1 FKM      -0.056300
     21 C25          3.8800    -2.7700     1.3560 ca         1 FKM      -0.119000
     22 C24          5.1740    -2.3850     1.6550 ca         1 FKM      -0.072000
     23 C23          5.8560    -1.4620     0.8680 ca         1 FKM      -0.191000
     24 C22          5.2210    -0.9160    -0.2450 ca         1 FKM       0.152100
     25 C21          3.9130    -1.3060    -0.5450 ca         1 FKM      -0.133000
     26 O26          5.7750    -0.0270    -1.0890 os         1 FKM      -0.351100
     27 C27          7.0810     0.4870    -0.8250 c5         1 FKM       0.170300
     28 C31          7.4740     1.3020    -2.0480 c5         1 FKM      -0.093900
     29 C30          6.7550     2.6330    -1.8420 c5         1 FKM      -0.076400
     30 C29          6.9420     2.9030    -0.3440 c5         1 FKM      -0.076400
     31 C28          7.0670     1.5130     0.3210 c5         1 FKM      -0.093900
     32 H1          -0.5240    -0.8990    -0.5140 h1         1 FKM       0.086200
     33 H2          -1.7340    -1.7810     0.4260 h1         1 FKM       0.086200
     34 H3          -2.0810     0.2660     1.8630 hc         1 FKM       0.077700
     35 H4          -0.8700     1.1290     0.9120 hc         1 FKM       0.077700
     36 H5          -2.2590     0.8180    -1.1400 h1         1 FKM       0.026200
     37 H6          -3.4730    -0.0360    -0.1770 h1         1 FKM       0.026200
     38 H7          -4.2160     3.6190    -0.3650 h2         1 FKM       0.073200
     39 H8          -3.5180     2.6480    -1.6740 h2         1 FKM       0.073200
     40 H9          -8.1920     1.4930     0.4040 hn         1 FKM       0.344500
     41 H10         -4.6210     1.0820    -2.7020 h4         1 FKM       0.199000
     42 H11         -6.6900    -0.1620    -3.1610 ha         1 FKM       0.223000
     43 H12          0.3630    -3.6250     0.9770 hn         1 FKM       0.486000
     44 H13          1.4570    -1.9670    -0.8890 h1         1 FKM       0.040700
     45 H14          2.3340    -4.8020    -0.1890 hc         1 FKM       0.048700
     46 H15          0.9540    -4.3560    -1.2090 hc         1 FKM       0.048700
     47 H16          2.5970    -3.9760    -1.7250 hc         1 FKM       0.048700
     48 H17          3.3630    -3.4820     1.9860 ha         1 FKM       0.122000
     49 H18          5.6740    -2.8040     2.5190 ha         1 FKM       0.112000
     50 H19          6.8640    -1.1820     1.1400 ha         1 FKM       0.117000
     51 H20          3.4210    -0.8720    -1.4090 ha         1 FKM       0.118000
     52 H21          7.7720    -0.3420    -0.6440 h1         1 FKM       0.049700
     53 H22          8.5570     1.4550    -2.0240 hc         1 FKM       0.054950
     54 H23          7.2350     0.7980    -2.9860 hc         1 FKM       0.054950
     55 H24          7.1550     3.4320    -2.4670 hc         1 FKM       0.046450
     56 H25          5.6960     2.5290    -2.0880 hc         1 FKM       0.046450
     57 H26          7.8560     3.4780    -0.1840 hc         1 FKM       0.046450
     58 H27          6.1250     3.4890     0.0770 hc         1 FKM       0.046450
     59 H28          6.2550     1.3190     1.0230 hc         1 FKM       0.054950
     60 H29          7.9910     1.4350     0.8960 hc         1 FKM       0.054950
@<TRIPOS>BOND
     1     1     2 2   
     2     2     3 2   
     3     2     4 1   
     4     2    17 1   
     5     4     5 1   
     6     4    32 1   
     7     4    33 1   
     8     5     6 1   
     9     5    34 1   
    10     5    35 1   
    11     6     7 1   
    12     6    36 1   
    13     6    37 1   
    14     7     8 1   
    15     8     9 1   
    16     8    38 1   
    17     8    39 1   
    18     9    10 1   
    19     9    13 1   
    20    10    11 2   
    21    10    12 1   
    22    12    15 1   
    23    12    40 1   
    24    13    14 2   
    25    13    41 1   
    26    14    15 1   
    27    14    42 1   
    28    15    16 2   
    29    17    18 1   
    30    17    43 1   
    31    18    19 1   
    32    18    20 1   
    33    18    44 1   
    34    19    45 1   
    35    19    46 1   
    36    19    47 1   
    37    20    21 ar  
    38    20    25 ar  
    39    21    22 ar  
    40    21    48 1   
    41    22    23 ar  
    42    22    49 1   
    43    23    24 ar  
    44    23    50 1   
    45    24    25 ar  
    46    24    26 1   
    47    25    51 1   
    48    26    27 1   
    49    27    28 1   
    50    27    31 1   
    51    27    52 1   
    52    28    29 1   
    53    28    53 1   
    54    28    54 1   
    55    29    30 1   
    56    29    55 1   
    57    29    56 1   
    58    30    31 1   
    59    30    57 1   
    60    30    58 1   
    61    31    59 1   
    62    31    60 1   
@<TRIPOS>SUBSTRUCTURE
     1 FKM         1 TEMP              0 ****  ****    0 ROOT
