@<TRIPOS>MOLECULE
FKM
   60    62     1     0     0
SMALL
No Charge or Current Charge


@<TRIPOS>ATOM
      1 O16          2.2010    -1.4490     2.6050 o          1 FKM      -0.518000
      2 S14          0.9470    -2.1420     2.3050 s6         1 FKM       1.193100
      3 O15         -0.0260    -2.3770     3.3710 o          1 FKM      -0.518000
      4 C13          0.1000    -1.3570     0.9210 c3         1 FKM      -0.354400
      5 C12         -0.3120     0.1070     1.2250 c3         1 FKM      -0.045400
      6 C11         -0.8880     0.8290    -0.0070 c3         1 FKM       0.155600
      7 O10         -1.1740     2.1830     0.3790 os         1 FKM      -0.434000
      8 C9          -1.6180     3.0510    -0.6820 c3         1 FKM       0.335000
      9 N4          -2.9490     2.6260    -1.1600 n          1 FKM      -0.352000
     10 C3          -4.0750     3.0110    -0.4060 c          1 FKM       0.617000
     11 O8          -4.0080     3.6820     0.6100 o          1 FKM      -0.535000
     12 N2          -5.2810     2.5950    -0.8810 ns         1 FKM      -0.471500
     13 C5          -3.0810     1.8850    -2.3360 cc         1 FKM      -0.003400
     14 C6          -4.3370     1.5060    -2.7480 cd         1 FKM      -0.375200
     15 C1          -5.5410     1.8640    -1.9950 c          1 FKM       0.590200
     16 O7          -6.6710     1.5480    -2.3210 o          1 FKM      -0.522000
     17 N17          1.3320    -3.6620     1.7310 n7         1 FKM      -0.883300
     18 C18          1.9890    -3.8490     0.4260 c3         1 FKM       0.278800
     19 C19          2.2120    -5.3560     0.2050 c3         1 FKM      -0.103100
     20 C20          3.2940    -3.0570     0.3030 ca         1 FKM      -0.056300
     21 C25          4.3950    -3.3110     1.1500 ca         1 FKM      -0.119000
     22 C24          5.5630    -2.5340     1.0540 ca         1 FKM      -0.072000
     23 C23          5.6340    -1.4820     0.1250 ca         1 FKM      -0.191000
     24 C22          4.5370    -1.2160    -0.7140 ca         1 FKM       0.152100
     25 C21          3.3910    -2.0220    -0.6490 ca         1 FKM      -0.133000
     26 O26          4.5650    -0.1750    -1.6170 os         1 FKM      -0.351100
     27 C27          4.5460     1.0860    -0.8910 c5         1 FKM       0.170300
     28 C31          4.6770     2.2310    -1.9480 c5         1 FKM      -0.093900
     29 C30          3.2420     2.8140    -2.0590 c5         1 FKM      -0.076400
     30 C29          2.7960     2.7650    -0.5800 c5         1 FKM      -0.076400
     31 C28          3.1280     1.2890    -0.2500 c5         1 FKM      -0.093900
     32 H1           0.7960    -1.3700     0.0780 h1         1 FKM       0.086200
     33 H2          -0.7770    -1.9710     0.6860 h1         1 FKM       0.086200
     34 H3          -1.0550     0.1250     2.0320 hc         1 FKM       0.077700
     35 H4           0.5610     0.6710     1.5780 hc         1 FKM       0.077700
     36 H5          -0.1520     0.8060    -0.8210 h1         1 FKM       0.026200
     37 H6          -1.7970     0.3120    -0.3410 h1         1 FKM       0.026200
     38 H7          -1.7020     4.0860    -0.3310 h2         1 FKM       0.073200
     39 H8          -0.9210     3.0370    -1.5280 h2         1 FKM       0.073200
     40 H9          -6.0830     2.8690    -0.3370 hn         1 FKM       0.344500
     41 H10         -2.1420     1.6600    -2.8360 h4         1 FKM       0.199000
     42 H11         -4.5070     0.9260    -3.6480 ha         1 FKM       0.223000
     43 H12          0.4140    -4.1010     1.7100 hn         1 FKM       0.486000
     44 H13          1.3140    -3.5130    -0.3720 h1         1 FKM       0.040700
     45 H14          2.8390    -5.7840     0.9950 hc         1 FKM       0.048700
     46 H15          1.2560    -5.8920     0.1970 hc         1 FKM       0.048700
     47 H16          2.7050    -5.5290    -0.7580 hc         1 FKM       0.048700
     48 H17          4.3370    -4.1000     1.8960 ha         1 FKM       0.122000
     49 H18          6.4060    -2.7380     1.7110 ha         1 FKM       0.112000
     50 H19          6.5350    -0.8780     0.0590 ha         1 FKM       0.117000
     51 H20          2.5620    -1.8120    -1.3190 ha         1 FKM       0.118000
     52 H21          5.3630     1.1320    -0.1580 h1         1 FKM       0.049700
     53 H22          5.3790     2.9950    -1.5950 hc         1 FKM       0.054950
     54 H23          5.0560     1.8790    -2.9150 hc         1 FKM       0.054950
     55 H24          3.2350     3.8310    -2.4670 hc         1 FKM       0.046450
     56 H25          2.6000     2.1970    -2.7000 hc         1 FKM       0.046450
     57 H26          3.3640     3.4640     0.0460 hc         1 FKM       0.046450
     58 H27          1.7320     2.9930    -0.4520 hc         1 FKM       0.046450
     59 H28          2.3770     0.6240    -0.6920 hc         1 FKM       0.054950
     60 H29          3.1330     1.0980     0.8290 hc         1 FKM       0.054950
@<TRIPOS>BOND
     1     1     2 2   
     2     2     3 2   
     3     2     4 1   
     4     2    17 1   
     5     4     5 1   
     6     4    32 1   
     7     4    33 1   
     8     5     6 1   
     9     5    34 1   
    10     5    35 1   
    11     6     7 1   
    12     6    36 1   
    13     6    37 1   
    14     7     8 1   
    15     8     9 1   
    16     8    38 1   
    17     8    39 1   
    18     9    10 1   
    19     9    13 1   
    20    10    11 2   
    21    10    12 1   
    22    12    15 1   
    23    12    40 1   
    24    13    14 2   
    25    13    41 1   
    26    14    15 1   
    27    14    42 1   
    28    15    16 2   
    29    17    18 1   
    30    17    43 1   
    31    18    19 1   
    32    18    20 1   
    33    18    44 1   
    34    19    45 1   
    35    19    46 1   
    36    19    47 1   
    37    20    21 ar  
    38    20    25 ar  
    39    21    22 ar  
    40    21    48 1   
    41    22    23 ar  
    42    22    49 1   
    43    23    24 ar  
    44    23    50 1   
    45    24    25 ar  
    46    24    26 1   
    47    25    51 1   
    48    26    27 1   
    49    27    28 1   
    50    27    31 1   
    51    27    52 1   
    52    28    29 1   
    53    28    53 1   
    54    28    54 1   
    55    29    30 1   
    56    29    55 1   
    57    29    56 1   
    58    30    31 1   
    59    30    57 1   
    60    30    58 1   
    61    31    59 1   
    62    31    60 1   
@<TRIPOS>SUBSTRUCTURE
     1 FKM         1 TEMP              0 ****  ****    0 ROOT
