@<TRIPOS>MOLECULE
FKN
   40    43     1     0     0
SMALL
No Charge or Current Charge


@<TRIPOS>ATOM
      1 C5           0.2140    -1.3270     0.5380 ca         1 FKN      -0.358900
      2 C6          -0.4920    -2.3290     1.1270 ca         1 FKN       0.168500
      3 C13         -6.1070     1.8270     0.6330 ca         1 FKN      -0.162000
      4 C15         -5.5720     0.7590    -1.4900 ca         1 FKN      -0.194000
      5 C20          4.6070    -0.6660    -1.5720 ca         1 FKN      -0.128000
      6 C21          4.7830     0.6380    -1.0840 ca         1 FKN       0.000000
      7 C22          3.9010     1.1430    -0.1090 ca         1 FKN      -0.272500
      8 C28          3.0900     3.7970    -0.5710 c3         1 FKN      -0.337100
      9 O29          3.5010     2.9020     1.8570 o          1 FKN      -0.517500
     10 S26          4.1140     2.8180     0.5250 sy         1 FKN       1.061500
     11 O27          5.5020     3.2410     0.2950 o          1 FKN      -0.517500
     12 C19          3.5580    -1.4710    -1.1000 ca         1 FKN       0.191000
     13 Cl24         3.3740    -3.0800    -1.8020 cl         1 FKN      -0.160000
     14 C23          2.8440     0.3380     0.3640 ca         1 FKN       0.003000
     15 C18          2.6570    -0.9700    -0.1320 ca         1 FKN      -0.110900
     16 C9           1.5700    -1.7830     0.4090 cc         1 FKN       0.433500
     17 C1          -0.4260    -0.1470     0.1540 ca         1 FKN       0.228900
     18 N8           1.7140    -3.0220     0.8980 nd         1 FKN      -0.476100
     19 N7           0.4210    -3.3410     1.3390 na         1 FKN      -0.151100
     20 N4          -1.8070    -2.2160     1.3750 nb         1 FKN      -0.193000
     21 C3          -2.3890    -1.0510     0.9930 ca         1 FKN       0.381300
     22 N2          -1.7460    -0.0090     0.3960 nb         1 FKN      -0.257000
     23 O10         -3.7360    -0.9260     1.2640 os         1 FKN      -0.322400
     24 C11         -4.5560    -0.0510     0.5810 ca         1 FKN       0.052100
     25 C16         -4.7240    -0.1380    -0.8220 ca         1 FKN       0.208000
     26 F25         -4.0830    -1.0930    -1.5350 f          1 FKN      -0.157000
     27 C14         -6.2580     1.7410    -0.7600 ca         1 FKN       0.205000
     28 F17         -7.0740     2.6040    -1.4010 f          1 FKN      -0.168000
     29 C12         -5.2580     0.9280     1.3060 ca         1 FKN      -0.051000
     30 H13         -6.6480     2.5890     1.1890 ha         1 FKN       0.143000
     31 H15         -5.6990     0.6920    -2.5660 ha         1 FKN       0.153000
     32 H20          5.2850    -1.0540    -2.3280 ha         1 FKN       0.140000
     33 H21          5.6010     1.2470    -1.4660 ha         1 FKN       0.144000
     34 H28          2.0600     3.4350    -0.4910 h1         1 FKN       0.103700
     35 H28A         3.1590     4.8440    -0.2580 h1         1 FKN       0.103700
     36 H28B         3.4660     3.6730    -1.5920 h1         1 FKN       0.103700
     37 H23          2.1690     0.7210     1.1290 ha         1 FKN       0.144000
     38 H1           0.0910     0.6760    -0.3370 h4         1 FKN       0.031100
     39 HN7          0.2110    -4.2410     1.7680 hn         1 FKN       0.398000
     40 H12         -5.1400     0.9920     2.3860 ha         1 FKN       0.138000
@<TRIPOS>BOND
     1     1     2 ar  
     2     1    16 1   
     3     1    17 ar  
     4     2    19 1   
     5     2    20 ar  
     6     3    27 ar  
     7     3    29 ar  
     8     3    30 1   
     9     4    25 ar  
    10     4    27 ar  
    11     4    31 1   
    12     5     6 ar  
    13     5    12 ar  
    14     5    32 1   
    15     6     7 ar  
    16     6    33 1   
    17     7    10 1   
    18     7    14 ar  
    19     8    10 1   
    20     8    34 1   
    21     8    35 1   
    22     8    36 1   
    23     9    10 2   
    24    10    11 2   
    25    12    13 1   
    26    12    15 ar  
    27    14    15 ar  
    28    14    37 1   
    29    15    16 1   
    30    16    18 2   
    31    17    22 ar  
    32    17    38 1   
    33    18    19 1   
    34    19    39 1   
    35    20    21 ar  
    36    21    22 ar  
    37    21    23 1   
    38    23    24 1   
    39    24    25 ar  
    40    24    29 ar  
    41    25    26 1   
    42    27    28 1   
    43    29    40 1   
@<TRIPOS>SUBSTRUCTURE
     1 FKN         1 TEMP              0 ****  ****    0 ROOT
