@<TRIPOS>MOLECULE
FKN
   40    43     1     0     0
SMALL
abcg2


@<TRIPOS>ATOM
      1 C5           0.1530    -1.2470     0.4070 ca         1 FKN      -0.358900
      2 C6          -0.5630    -2.3080     0.9840 ca         1 FKN       0.168500
      3 C13         -5.8820     1.7540     0.8880 ca         1 FKN      -0.162000
      4 C15         -5.6190     0.9430    -1.3800 ca         1 FKN      -0.194000
      5 C20          4.7710    -0.6940    -1.2420 ca         1 FKN      -0.128000
      6 C21          4.8650     0.6320    -0.8600 ca         1 FKN       0.000000
      7 C22          3.8640     1.1760    -0.0700 ca         1 FKN      -0.272500
      8 C28          3.1260     3.7390    -0.8950 c3         1 FKN      -0.337100
      9 O29          3.1840     3.0460     1.6450 o          1 FKN      -0.517500
     10 S26          3.9610     2.8810     0.4190 sy         1 FKN       1.061500
     11 O27          5.3660     3.2760     0.4120 o          1 FKN      -0.517500
     12 C19          3.6890    -1.4610    -0.8330 ca         1 FKN       0.191000
     13 CL24         3.6080    -3.0900    -1.3850 cl         1 FKN      -0.160000
     14 C23          2.7890     0.4120     0.3490 ca         1 FKN       0.003000
     15 C18          2.6820    -0.9250    -0.0260 ca         1 FKN      -0.110900
     16 C9           1.5120    -1.6790     0.4310 cc         1 FKN       0.433500
     17 C1          -0.6150    -0.1710    -0.0170 ca         1 FKN       0.228900
     18 N8           1.5890    -2.8700     0.9660 nd         1 FKN      -0.476100
     19 N7           0.3450    -3.2450     1.2930 na         1 FKN      -0.151100
     20 N4          -1.8770    -2.3400     1.1610 nb         1 FKN      -0.193000
     21 C3          -2.4680    -1.2520     0.7300 ca         1 FKN       0.381300
     22 N2          -1.9230    -0.1810     0.1520 nb         1 FKN      -0.257000
     23 O10         -3.7980    -1.2520     0.9170 os         1 FKN      -0.322400
     24 C11         -4.5380    -0.1930     0.4580 ca         1 FKN       0.052100
     25 C16         -4.8200    -0.0710    -0.8940 ca         1 FKN       0.208000
     26 F25         -4.3000    -0.9620    -1.7400 f          1 FKN      -0.157000
     27 C14         -6.1380     1.8420    -0.4650 ca         1 FKN       0.205000
     28 F17         -6.9180     2.8290    -0.9200 f          1 FKN      -0.168000
     29 C12         -5.0690     0.7250     1.3440 ca         1 FKN      -0.051000
     30 H13         -6.3030     2.4720     1.5780 ha         1 FKN       0.143000
     31 H15         -5.8300     1.0260    -2.4380 ha         1 FKN       0.153000
     32 H20          5.5400    -1.1320    -1.8620 ha         1 FKN       0.140000
     33 H21          5.7130     1.2210    -1.1850 ha         1 FKN       0.144000
     34 H28          2.0950     3.3980    -0.9550 h1         1 FKN       0.103700
     35 H28A         3.1550     4.8020    -0.6550 h1         1 FKN       0.103700
     36 H28B         3.6430     3.5550    -1.8340 h1         1 FKN       0.103700
     37 H23          2.0340     0.8410     0.9940 ha         1 FKN       0.144000
     38 H1          -0.1850     0.7020    -0.4950 h4         1 FKN       0.031100
     39 HN7          0.1890    -4.1390     1.7350 hn         1 FKN       0.398000
     40 H12         -4.8520     0.6330     2.4000 ha         1 FKN       0.138000
@<TRIPOS>BOND
     1     1     2 ar  
     2     1    16 1   
     3     1    17 ar  
     4     2    19 1   
     5     2    20 ar  
     6     3    27 ar  
     7     3    29 ar  
     8     3    30 1   
     9     4    25 ar  
    10     4    27 ar  
    11     4    31 1   
    12     5     6 ar  
    13     5    12 ar  
    14     5    32 1   
    15     6     7 ar  
    16     6    33 1   
    17     7    10 1   
    18     7    14 ar  
    19     8    10 1   
    20     8    34 1   
    21     8    35 1   
    22     8    36 1   
    23     9    10 2   
    24    10    11 2   
    25    12    13 1   
    26    12    15 ar  
    27    14    15 ar  
    28    14    37 1   
    29    15    16 1   
    30    16    18 2   
    31    17    22 ar  
    32    17    38 1   
    33    18    19 1   
    34    19    39 1   
    35    20    21 ar  
    36    21    22 ar  
    37    21    23 1   
    38    23    24 1   
    39    24    25 ar  
    40    24    29 ar  
    41    25    26 1   
    42    27    28 1   
    43    29    40 1   
@<TRIPOS>SUBSTRUCTURE
     1 FKN         1 TEMP              0 ****  ****    0 ROOT
