@<TRIPOS>MOLECULE
FKO
   36    39     1     0     0
SMALL
abcg2


@<TRIPOS>ATOM
      1 FAA          5.2870    -1.7860    -0.1300 f          1 FKO      -0.165000
      2 CAQ          5.0910    -0.4820    -0.3700 ca         1 FKO       0.151000
      3 CAG          6.0480     0.2410    -1.0490 ca         1 FKO      -0.131000
      4 CAC          5.8270     1.5900    -1.2980 ca         1 FKO      -0.110000
      5 CAE          4.6570     2.1910    -0.8570 ca         1 FKO      -0.100000
      6 CAI          3.7040     1.4540    -0.1660 ca         1 FKO      -0.143000
      7 CAT          3.9150     0.1050     0.0820 ca         1 FKO       0.087100
      8 OAP          3.0570    -0.6850     0.7810 os         1 FKO      -0.237200
      9 CAS          1.7150    -0.4010     0.7240 ca         1 FKO       0.109100
     10 CAM          1.0490    -0.1870     1.8930 ca         1 FKO      -0.090000
     11 CAK          1.0690    -0.3950    -0.5450 ca         1 FKO      -0.155000
     12 CAL         -0.2760    -0.1810    -0.6420 ca         1 FKO      -0.033000
     13 CAX         -1.0060     0.0310     0.5460 ca         1 FKO      -0.127000
     14 CAW         -0.3460     0.0320     1.8050 ca         1 FKO      -0.061000
     15 NAO         -1.2000     0.2770     2.8010 nc         1 FKO      -0.270400
     16 NAN         -2.3640     0.4290     2.1910 na         1 FKO       0.024500
     17 CAV         -2.3420     0.2920     0.8570 cc         1 FKO      -0.041300
     18 CAU         -3.5350     0.4890     0.0340 ca         1 FKO      -0.037800
     19 CAR         -3.9860    -0.4660    -0.8780 ca         1 FKO       0.141000
     20 CLB         -3.1590    -1.9790    -1.0370 cl         1 FKO      -0.180000
     21 CAJ         -4.2680     1.6720     0.1560 ca         1 FKO      -0.094000
     22 CAF         -5.4030     1.8950    -0.6050 ca         1 FKO      -0.108000
     23 CAD         -5.8230     0.9340    -1.5140 ca         1 FKO      -0.089000
     24 CAH         -5.1160    -0.2500    -1.6510 ca         1 FKO      -0.105000
     25 HAG          6.9500    -0.2500    -1.3890 ha         1 FKO       0.132000
     26 HAC          6.5700     2.1630    -1.8350 ha         1 FKO       0.119000
     27 HAE          4.4800     3.2410    -1.0450 ha         1 FKO       0.118000
     28 HAI          2.7990     1.9350     0.1850 ha         1 FKO       0.131000
     29 HAM          1.5620    -0.1880     2.8460 ha         1 FKO       0.144000
     30 HAK          1.6550    -0.5740    -1.4380 ha         1 FKO       0.127000
     31 HAL         -0.7600    -0.1780    -1.6090 ha         1 FKO       0.124000
     32 HNAN        -3.1870     0.6130     2.7480 hn         1 FKO       0.374000
     33 HAJ         -3.9270     2.4330     0.8470 ha         1 FKO       0.120000
     34 HAF         -5.9500     2.8220    -0.4970 ha         1 FKO       0.123000
     35 HAD         -6.7050     1.0990    -2.1170 ha         1 FKO       0.122000
     36 HAH         -5.4470    -1.0080    -2.3480 ha         1 FKO       0.134000
@<TRIPOS>BOND
     1     1     2 1   
     2     2     3 ar  
     3     2     7 ar  
     4     3     4 ar  
     5     3    25 1   
     6     4     5 ar  
     7     4    26 1   
     8     5     6 ar  
     9     5    27 1   
    10     6     7 ar  
    11     6    28 1   
    12     7     8 1   
    13     8     9 1   
    14     9    10 ar  
    15     9    11 ar  
    16    10    14 ar  
    17    10    29 1   
    18    11    12 ar  
    19    11    30 1   
    20    12    13 ar  
    21    12    31 1   
    22    13    14 ar  
    23    13    17 2   
    24    14    15 2   
    25    15    16 1   
    26    16    17 1   
    27    16    32 1   
    28    17    18 1   
    29    18    19 ar  
    30    18    21 ar  
    31    19    20 1   
    32    19    24 ar  
    33    21    22 ar  
    34    21    33 1   
    35    22    23 ar  
    36    22    34 1   
    37    23    24 ar  
    38    23    35 1   
    39    24    36 1   
@<TRIPOS>SUBSTRUCTURE
     1 FKO         1 TEMP              0 ****  ****    0 ROOT
