@<TRIPOS>MOLECULE
FKO
   36    39     1     0     0
SMALL
No Charge or Current Charge


@<TRIPOS>ATOM
      1 FAA          5.2900    -1.8020     0.0000 f          1 FKO      -0.165000
      2 CAQ          5.0830    -0.5140    -0.3600 ca         1 FKO       0.151000
      3 CAG          6.0050     0.1210    -1.2090 ca         1 FKO      -0.131000
      4 CAC          5.8020     1.4600    -1.5900 ca         1 FKO      -0.110000
      5 CAE          4.6800     2.1630    -1.1170 ca         1 FKO      -0.100000
      6 CAI          3.7560     1.5290    -0.2660 ca         1 FKO      -0.143000
      7 CAT          3.9490     0.1820     0.1070 ca         1 FKO       0.087100
      8 OAP          3.0580    -0.4490     0.9520 os         1 FKO      -0.237200
      9 CAS          1.6950    -0.2700     0.8710 ca         1 FKO       0.109100
     10 CAM          0.9440    -0.2360     2.0640 ca         1 FKO      -0.090000
     11 CAK          1.0510    -0.1460    -0.3860 ca         1 FKO      -0.155000
     12 CAL         -0.3460     0.0240    -0.4500 ca         1 FKO      -0.033000
     13 CAX         -1.0550     0.0460     0.7600 ca         1 FKO      -0.127000
     14 CAW         -0.4470    -0.0650     1.9880 ca         1 FKO      -0.061000
     15 NAO         -1.3370     0.0270     3.0650 nc         1 FKO      -0.270400
     16 NAN         -2.5700     0.2160     2.4230 na         1 FKO       0.024500
     17 CAV         -2.4400     0.2060     1.0400 cc         1 FKO      -0.041300
     18 CAU         -3.5260     0.4470     0.0910 ca         1 FKO      -0.037800
     19 CAR         -3.8210    -0.4590    -0.9550 ca         1 FKO       0.141000
     20 ClB         -2.9410    -1.9780    -1.1370 cl         1 FKO      -0.180000
     21 CAJ         -4.3130     1.6090     0.2330 ca         1 FKO      -0.094000
     22 CAF         -5.3610     1.8760    -0.6660 ca         1 FKO      -0.108000
     23 CAD         -5.6390     0.9800    -1.7100 ca         1 FKO      -0.089000
     24 CAH         -4.8710    -0.1880    -1.8500 ca         1 FKO      -0.105000
     25 HAG          6.8740    -0.4250    -1.5690 ha         1 FKO       0.132000
     26 HAC          6.5160     1.9530    -2.2470 ha         1 FKO       0.119000
     27 HAE          4.5280     3.2010    -1.4060 ha         1 FKO       0.118000
     28 HAI          2.8970     2.0830     0.1030 ha         1 FKO       0.131000
     29 HAM          1.4380    -0.3300     3.0280 ha         1 FKO       0.144000
     30 HAK          1.6280    -0.1840    -1.3060 ha         1 FKO       0.127000
     31 HAL         -0.8540     0.1330    -1.4050 ha         1 FKO       0.124000
     32 HNAN        -3.4280     0.3290     2.9520 hn         1 FKO       0.374000
     33 HAJ         -4.1020     2.3150     1.0330 ha         1 FKO       0.120000
     34 HAF         -5.9560     2.7800    -0.5520 ha         1 FKO       0.123000
     35 HAD         -6.4510     1.1860    -2.4040 ha         1 FKO       0.122000
     36 HAH         -5.0960    -0.8920    -2.6480 ha         1 FKO       0.134000
@<TRIPOS>BOND
     1     1     2 1   
     2     2     3 ar  
     3     2     7 ar  
     4     3     4 ar  
     5     3    25 1   
     6     4     5 ar  
     7     4    26 1   
     8     5     6 ar  
     9     5    27 1   
    10     6     7 ar  
    11     6    28 1   
    12     7     8 1   
    13     8     9 1   
    14     9    10 ar  
    15     9    11 ar  
    16    10    14 ar  
    17    10    29 1   
    18    11    12 ar  
    19    11    30 1   
    20    12    13 ar  
    21    12    31 1   
    22    13    14 ar  
    23    13    17 2   
    24    14    15 2   
    25    15    16 1   
    26    16    17 1   
    27    16    32 1   
    28    17    18 1   
    29    18    19 ar  
    30    18    21 ar  
    31    19    20 1   
    32    19    24 ar  
    33    21    22 ar  
    34    21    33 1   
    35    22    23 ar  
    36    22    34 1   
    37    23    24 ar  
    38    23    35 1   
    39    24    36 1   
@<TRIPOS>SUBSTRUCTURE
     1 FKO         1 TEMP              0 ****  ****    0 ROOT
