@<TRIPOS>MOLECULE
FKP
   89    92     1     0     0
SMALL
bcc


@<TRIPOS>ATOM
      1 C1          42.2880   -12.5990    52.1960 c6         1 FKP       0.144100
      2 O2          42.1550   -13.6160    51.2000 oh         1 FKP      -0.623800
      3 C2          42.9070   -13.2230    53.4410 c6         1 FKP      -0.100400
      4 C3          44.3370   -13.6650    53.2070 c6         1 FKP      -0.069400
      5 C4          45.2550   -12.5070    52.7950 c6         1 FKP      -0.026000
      6 C5          44.6240   -11.8340    51.5360 c6         1 FKP      -0.034700
      7 C6          45.5340   -10.7940    50.8700 c6         1 FKP       0.155100
      8 O3          45.7860    -9.6880    51.7060 oh         1 FKP      -0.598800
      9 C7          44.9620   -10.4020    49.5110 c6         1 FKP       0.116100
     10 O4          45.8140    -9.4060    48.9430 os         1 FKP      -0.443900
     11 C8          43.5250    -9.8750    49.5300 c6         1 FKP       0.191800
     12 O1          43.1990    -9.7900    48.1550 os         1 FKP      -0.409600
     13 C9          42.6510   -10.9880    50.1910 c6         1 FKP       0.051800
     14 O6          42.7140   -12.0700    49.2860 oh         1 FKP      -0.603800
     15 C10         43.1230   -11.3990    51.6420 c6         1 FKP      -0.024000
     16 C11         41.1800   -10.5770    50.0520 c          1 FKP       0.574100
     17 O7          40.3010   -10.9340    50.8020 o          1 FKP      -0.536100
     18 C12         40.8280    -9.7230    48.8550 c6         1 FKP      -0.203400
     19 C13         41.8710    -9.5700    47.7310 c6         1 FKP       0.230000
     20 C14         41.5570   -10.5350    46.6120 c2         1 FKP      -0.196200
     21 C15         42.3800   -11.4180    46.0670 c2         1 FKP      -0.169000
     22 C16         41.7660    -8.1540    47.1490 c3         1 FKP      -0.104100
     23 C17         43.4080    -8.4850    50.1610 c3         1 FKP      -0.116100
     24 C18         46.6080   -13.1200    52.4150 c3         1 FKP      -0.085600
     25 C19         45.4970   -11.6010    54.0080 c3         1 FKP      -0.085600
     26 C20         42.8580   -10.2450    52.6340 c3         1 FKP      -0.090100
     27 C21         46.3770    -9.5910    47.7460 c          1 FKP       0.656100
     28 O5          46.2620   -10.5960    47.0930 o          1 FKP      -0.518000
     29 C22         47.1780    -8.3830    47.3420 c3         1 FKP      -0.136400
     30 C23         48.3530    -8.0980    48.2800 c3         1 FKP      -0.071400
     31 C24         49.4060    -9.2030    48.2830 c3         1 FKP      -0.085400
     32 C25         50.6030    -8.9160    49.1960 c3         1 FKP       0.171800
     33 N1          50.5670    -9.6170    50.4680 n3         1 FKP      -0.721600
     34 C26         49.3930    -9.3130    51.2590 c6         1 FKP       0.164800
     35 C27         49.4010   -10.0940    52.5590 c6         1 FKP       0.160800
     36 N2          50.5980    -9.8220    53.3230 n3         1 FKP      -0.715600
     37 C28         51.7710   -10.1360    52.5330 c6         1 FKP       0.160800
     38 C29         51.7670    -9.3490    51.2360 c6         1 FKP       0.164800
     39 C30         50.5950   -10.5300    54.5810 c3         1 FKP       0.153100
     40 H1          41.2980   -12.2210    52.4530 h1         1 FKP       0.062700
     41 HO2         41.4140   -14.1850    51.4300 ho         1 FKP       0.421000
     42 H21         42.8520   -12.5280    54.2820 hc         1 FKP       0.045700
     43 H22         42.2880   -14.0750    53.7360 hc         1 FKP       0.045700
     44 H31         44.7350   -14.1340    54.1120 hc         1 FKP       0.045700
     45 H32         44.3590   -14.4390    52.4340 hc         1 FKP       0.045700
     46 H5          44.6270   -12.6520    50.8050 hc         1 FKP       0.067700
     47 H6          46.4840   -11.2970    50.6420 h1         1 FKP       0.041700
     48 HO3         46.3140    -9.0490    51.2160 ho         1 FKP       0.414000
     49 H7          44.9810   -11.2980    48.8910 h1         1 FKP       0.106700
     50 HO6         42.3910   -12.8510    49.7820 ho         1 FKP       0.449000
     51 H121        39.8860   -10.0870    48.4400 hc         1 FKP       0.074200
     52 H122        40.5890    -8.7390    49.2730 hc         1 FKP       0.074200
     53 H14         40.5540   -10.4260    46.2080 ha         1 FKP       0.111000
     54 H151        43.3910   -11.5670    46.4190 ha         1 FKP       0.122000
     55 H152        42.0560   -12.0310    45.2360 ha         1 FKP       0.122000
     56 H161        40.7690    -7.9750    46.7430 hc         1 FKP       0.041367
     57 H162        41.9540    -7.4020    47.9170 hc         1 FKP       0.041367
     58 H163        42.4880    -8.0160    46.3440 hc         1 FKP       0.041367
     59 H171        42.3750    -8.1650    50.2880 hc         1 FKP       0.050033
     60 H172        43.8860    -8.4190    51.1290 hc         1 FKP       0.050033
     61 H173        43.8890    -7.7570    49.5090 hc         1 FKP       0.050033
     62 H181        47.3740   -12.3640    52.2370 hc         1 FKP       0.036033
     63 H182        46.9680   -13.7510    53.2310 hc         1 FKP       0.036033
     64 H183        46.5360   -13.7440    51.5210 hc         1 FKP       0.036033
     65 H191        46.2340   -10.8290    53.7980 hc         1 FKP       0.036033
     66 H192        44.6010   -11.1060    54.3750 hc         1 FKP       0.036033
     67 H193        45.8890   -12.2080    54.8290 hc         1 FKP       0.036033
     68 H201        43.6970    -9.5690    52.7370 hc         1 FKP       0.046367
     69 H202        41.9880    -9.6580    52.3460 hc         1 FKP       0.046367
     70 H203        42.6420   -10.6240    53.6310 hc         1 FKP       0.046367
     71 H221        47.5410    -8.5410    46.3260 hc         1 FKP       0.073200
     72 H222        46.5120    -7.5170    47.3220 hc         1 FKP       0.073200
     73 H231        48.8220    -7.1690    47.9480 hc         1 FKP       0.046700
     74 H232        47.9850    -7.9010    49.2890 hc         1 FKP       0.046700
     75 H241        48.9700   -10.1680    48.5630 hc         1 FKP       0.054200
     76 H242        49.7660    -9.3290    47.2590 hc         1 FKP       0.054200
     77 H251        51.5220    -9.2250    48.6920 h1         1 FKP       0.030200
     78 H252        50.6920    -7.8250    49.3450 h1         1 FKP       0.030200
     79 H261        49.3120    -8.2330    51.4770 h1         1 FKP       0.035950
     80 H262        48.5000    -9.6010    50.7020 h1         1 FKP       0.035950
     81 H271        48.5240    -9.8130    53.1480 h1         1 FKP       0.038700
     82 H272        49.3030   -11.1700    52.3290 h1         1 FKP       0.038700
     83 H281        52.6680    -9.8810    53.1030 h1         1 FKP       0.038700
     84 H282        51.8290   -11.2150    52.3030 h1         1 FKP       0.038700
     85 H291        52.6400    -9.6350    50.6430 h1         1 FKP       0.035950
     86 H292        51.8720    -8.2740    51.4650 h1         1 FKP       0.035950
     87 H301        51.4860   -10.2770    55.1580 h1         1 FKP       0.030367
     88 H302        49.7220   -10.2440    55.1700 h1         1 FKP       0.030367
     89 H303        50.5720   -11.6250    54.4600 h1         1 FKP       0.030367
@<TRIPOS>BOND
     1     1     2 1   
     2     1     3 1   
     3     1    15 1   
     4     1    40 1   
     5     2    41 1   
     6     3     4 1   
     7     3    42 1   
     8     3    43 1   
     9     4     5 1   
    10     4    44 1   
    11     4    45 1   
    12     5     6 1   
    13     5    24 1   
    14     5    25 1   
    15     6     7 1   
    16     6    15 1   
    17     6    46 1   
    18     7     8 1   
    19     7     9 1   
    20     7    47 1   
    21     8    48 1   
    22     9    10 1   
    23     9    11 1   
    24     9    49 1   
    25    10    27 1   
    26    11    12 1   
    27    11    13 1   
    28    11    23 1   
    29    12    19 1   
    30    13    14 1   
    31    13    15 1   
    32    13    16 1   
    33    14    50 1   
    34    15    26 1   
    35    16    17 2   
    36    16    18 1   
    37    18    19 1   
    38    18    51 1   
    39    18    52 1   
    40    19    20 1   
    41    19    22 1   
    42    20    21 2   
    43    20    53 1   
    44    21    54 1   
    45    21    55 1   
    46    22    56 1   
    47    22    57 1   
    48    22    58 1   
    49    23    59 1   
    50    23    60 1   
    51    23    61 1   
    52    24    62 1   
    53    24    63 1   
    54    24    64 1   
    55    25    65 1   
    56    25    66 1   
    57    25    67 1   
    58    26    68 1   
    59    26    69 1   
    60    26    70 1   
    61    27    28 2   
    62    27    29 1   
    63    29    30 1   
    64    29    71 1   
    65    29    72 1   
    66    30    31 1   
    67    30    73 1   
    68    30    74 1   
    69    31    32 1   
    70    31    75 1   
    71    31    76 1   
    72    32    33 1   
    73    32    77 1   
    74    32    78 1   
    75    33    34 1   
    76    33    38 1   
    77    34    35 1   
    78    34    79 1   
    79    34    80 1   
    80    35    36 1   
    81    35    81 1   
    82    35    82 1   
    83    36    37 1   
    84    36    39 1   
    85    37    38 1   
    86    37    83 1   
    87    37    84 1   
    88    38    85 1   
    89    38    86 1   
    90    39    87 1   
    91    39    88 1   
    92    39    89 1   
@<TRIPOS>SUBSTRUCTURE
     1 FKP         1 TEMP              0 ****  ****    0 ROOT
