@<TRIPOS>MOLECULE
FKP
   89    92     1     0     0
SMALL
No Charge or Current Charge


@<TRIPOS>ATOM
      1 C1          42.3540   -12.7700    52.1280 c6         1 FKP       0.167300
      2 O2          42.2050   -13.9000    51.2480 oh         1 FKP      -0.686000
      3 C2          43.0260   -13.2900    53.4350 c6         1 FKP      -0.100400
      4 C3          44.5090   -13.7020    53.2240 c6         1 FKP      -0.069400
      5 C4          45.4110   -12.5510    52.6730 c6         1 FKP      -0.026000
      6 C5          44.7010   -12.0140    51.3100 c6         1 FKP      -0.034700
      7 C6          45.5560   -11.0260    50.4310 c6         1 FKP       0.178300
      8 O3          46.0400    -9.8920    51.1600 oh         1 FKP      -0.661000
      9 C7          44.8490   -10.5720    49.0880 c6         1 FKP       0.139300
     10 O4          45.6710    -9.5680    48.4300 os         1 FKP      -0.467100
     11 C8          43.3610   -10.0620    49.2670 c6         1 FKP       0.215000
     12 O1          42.7100    -9.9190    47.9560 os         1 FKP      -0.456000
     13 C9          42.5730   -11.2240    49.9930 c6         1 FKP       0.075000
     14 O6          42.6880   -12.4370    49.2090 oh         1 FKP      -0.726000
     15 C10         43.1450   -11.5510    51.4680 c6         1 FKP      -0.024000
     16 C11         40.5400   -10.6330    49.8490 c          1 FKP       0.574100
     17 O7          39.6040   -11.3370    50.2120 o          1 FKP      -0.536100
     18 C12         40.3390    -9.4290    48.9460 c6         1 FKP      -0.203400
     19 C13         41.3830    -9.2970    47.7750 c6         1 FKP       0.253200
     20 C14         40.7810    -9.9900    46.5520 c2         1 FKP      -0.246200
     21 C15         40.6740   -11.3240    46.4080 c2         1 FKP      -0.269000
     22 C16         41.5970    -7.7990    47.3850 c3         1 FKP      -0.104100
     23 C17         43.3830    -8.6230    49.9110 c3         1 FKP      -0.116100
     24 C18         46.8460   -13.1770    52.4100 c3         1 FKP      -0.085600
     25 C19         45.6560   -11.5010    53.8370 c3         1 FKP      -0.085600
     26 C20         42.8710   -10.3040    52.4240 c3         1 FKP      -0.090100
     27 C21         46.7990    -9.9320    47.7410 c          1 FKP       0.607100
     28 O5          47.1660   -11.0870    47.5810 o          1 FKP      -0.469000
     29 C22         47.5590    -8.7120    47.2150 c3         1 FKP      -0.136400
     30 C23         48.6510    -8.2350    48.2050 c3         1 FKP      -0.071400
     31 C24         49.8760    -9.1830    48.2980 c3         1 FKP      -0.085400
     32 C25         50.9310    -8.7560    49.3500 c3         1 FKP       0.171800
     33 N1          50.8490    -9.4630    50.6540 n3         1 FKP      -0.721600
     34 C26         49.5410    -9.3030    51.3660 c6         1 FKP       0.164800
     35 C27         49.4990   -10.0680    52.7280 c6         1 FKP       0.160800
     36 N2          50.6230    -9.6870    53.6340 n3         1 FKP      -0.715600
     37 C28         51.9270    -9.8630    52.9260 c6         1 FKP       0.160800
     38 C29         51.9720    -9.0890    51.5680 c6         1 FKP       0.164800
     39 C30         50.5750   -10.3960    54.9300 c3         1 FKP       0.153100
     40 H1          41.3480   -12.4090    52.3960 h1         1 FKP       0.062700
     41 HO2         41.7980   -14.6210    51.7810 ho         1 FKP       0.460000
     42 H21         42.9550   -12.5540    54.2440 hc         1 FKP       0.045700
     43 H22         42.4670   -14.1590    53.8090 hc         1 FKP       0.045700
     44 H31         44.9150   -14.0760    54.1740 hc         1 FKP       0.045700
     45 H32         44.5450   -14.5590    52.5360 hc         1 FKP       0.045700
     46 H5          44.6730   -12.9170    50.6860 hc         1 FKP       0.067700
     47 H6          46.4370   -11.6020    50.1140 h1         1 FKP       0.041700
     48 HO3         46.1860    -9.1960    50.4840 ho         1 FKP       0.453000
     49 H7          44.7970   -11.4490    48.4270 h1         1 FKP       0.106700
     50 HO6         42.4800   -13.1620    49.8740 ho         1 FKP       0.548000
     51 H121        39.3040    -9.4130    48.5790 hc         1 FKP       0.074200
     52 H122        40.4460    -8.5520    49.5920 hc         1 FKP       0.074200
     53 H14         40.4160    -9.3400    45.7550 ha         1 FKP       0.161000
     54 H151        41.0270   -12.0160    47.1720 ha         1 FKP       0.172000
     55 H152        40.2340   -11.7680    45.5150 ha         1 FKP       0.172000
     56 H161        40.6930    -7.3770    46.9310 hc         1 FKP       0.041367
     57 H162        41.8210    -7.1610    48.2450 hc         1 FKP       0.041367
     58 H163        42.4120    -7.6900    46.6600 hc         1 FKP       0.041367
     59 H171        42.4210    -8.3040    50.3110 hc         1 FKP       0.050033
     60 H172        44.0890    -8.5120    50.7290 hc         1 FKP       0.050033
     61 H173        43.7120    -7.8790    49.1780 hc         1 FKP       0.050033
     62 H181        47.5580   -12.4170    52.0690 hc         1 FKP       0.036033
     63 H182        47.2640   -13.6350    53.3150 hc         1 FKP       0.036033
     64 H183        46.8060   -13.9550    51.6380 hc         1 FKP       0.036033
     65 H191        46.3410   -10.7020    53.5390 hc         1 FKP       0.036033
     66 H192        44.7380   -11.0300    54.1920 hc         1 FKP       0.036033
     67 H193        46.1080   -11.9840    54.7120 hc         1 FKP       0.036033
     68 H201        43.7320    -9.6350    52.4970 hc         1 FKP       0.046367
     69 H202        42.0040    -9.7210    52.0960 hc         1 FKP       0.046367
     70 H203        42.6380   -10.5840    53.4540 hc         1 FKP       0.046367
     71 H221        48.0200    -8.9530    46.2500 hc         1 FKP       0.073200
     72 H222        46.8500    -7.8830    47.1020 hc         1 FKP       0.073200
     73 H231        49.0040    -7.2460    47.8840 hc         1 FKP       0.046700
     74 H232        48.2010    -8.0920    49.1940 hc         1 FKP       0.046700
     75 H241        49.5580   -10.2120    48.5020 hc         1 FKP       0.054200
     76 H242        50.3640    -9.2030    47.3160 hc         1 FKP       0.054200
     77 H251        51.9190    -8.9570    48.9140 h1         1 FKP       0.030200
     78 H252        50.8730    -7.6690    49.4990 h1         1 FKP       0.030200
     79 H261        49.3390    -8.2380    51.5540 h1         1 FKP       0.035950
     80 H262        48.7200    -9.6860    50.7450 h1         1 FKP       0.035950
     81 H271        48.5330    -9.8640    53.2130 h1         1 FKP       0.038700
     82 H272        49.5330   -11.1470    52.5200 h1         1 FKP       0.038700
     83 H281        52.7540    -9.5100    53.5590 h1         1 FKP       0.038700
     84 H282        52.1080   -10.9290    52.7260 h1         1 FKP       0.038700
     85 H291        52.9390    -9.2910    51.0840 h1         1 FKP       0.035950
     86 H292        51.9410    -8.0100    51.7810 h1         1 FKP       0.035950
     87 H301        51.3860   -10.0560    55.5880 h1         1 FKP       0.030367
     88 H302        49.6210   -10.2040    55.4410 h1         1 FKP       0.030367
     89 H303        50.6770   -11.4800    54.7890 h1         1 FKP       0.030367
@<TRIPOS>BOND
     1     1     2 1   
     2     1     3 1   
     3     1    15 1   
     4     1    40 1   
     5     2    41 1   
     6     3     4 1   
     7     3    42 1   
     8     3    43 1   
     9     4     5 1   
    10     4    44 1   
    11     4    45 1   
    12     5     6 1   
    13     5    24 1   
    14     5    25 1   
    15     6     7 1   
    16     6    15 1   
    17     6    46 1   
    18     7     8 1   
    19     7     9 1   
    20     7    47 1   
    21     8    48 1   
    22     9    10 1   
    23     9    11 1   
    24     9    49 1   
    25    10    27 1   
    26    11    12 1   
    27    11    13 1   
    28    11    23 1   
    29    12    19 1   
    30    13    14 1   
    31    13    15 1   
    32    13    16 1   
    33    14    50 1   
    34    15    26 1   
    35    16    17 2   
    36    16    18 1   
    37    18    19 1   
    38    18    51 1   
    39    18    52 1   
    40    19    20 1   
    41    19    22 1   
    42    20    21 2   
    43    20    53 1   
    44    21    54 1   
    45    21    55 1   
    46    22    56 1   
    47    22    57 1   
    48    22    58 1   
    49    23    59 1   
    50    23    60 1   
    51    23    61 1   
    52    24    62 1   
    53    24    63 1   
    54    24    64 1   
    55    25    65 1   
    56    25    66 1   
    57    25    67 1   
    58    26    68 1   
    59    26    69 1   
    60    26    70 1   
    61    27    28 2   
    62    27    29 1   
    63    29    30 1   
    64    29    71 1   
    65    29    72 1   
    66    30    31 1   
    67    30    73 1   
    68    30    74 1   
    69    31    32 1   
    70    31    75 1   
    71    31    76 1   
    72    32    33 1   
    73    32    77 1   
    74    32    78 1   
    75    33    34 1   
    76    33    38 1   
    77    34    35 1   
    78    34    79 1   
    79    34    80 1   
    80    35    36 1   
    81    35    81 1   
    82    35    82 1   
    83    36    37 1   
    84    36    39 1   
    85    37    38 1   
    86    37    83 1   
    87    37    84 1   
    88    38    85 1   
    89    38    86 1   
    90    39    87 1   
    91    39    88 1   
    92    39    89 1   
@<TRIPOS>SUBSTRUCTURE
     1 FKP         1 TEMP              0 ****  ****    0 ROOT
