@<TRIPOS>MOLECULE
FKQ
   45    47     1     0     0
SMALL
No Charge or Current Charge


@<TRIPOS>ATOM
      1 C3          -2.2680     0.5220    -1.5870 ca         1 FKQ      -0.101000
      2 C2          -3.5360    -0.0520    -1.3950 ca         1 FKQ      -0.015500
      3 C1          -4.0760    -0.1550    -0.0970 ca         1 FKQ      -0.258500
      4 S1          -5.6990    -0.8860     0.1520 sy         1 FKQ       1.125600
      5 O1          -6.2680    -0.4730     1.4330 o          1 FKQ      -0.541000
      6 O2          -6.4750    -0.8730    -1.0860 o          1 FKQ      -0.541000
      7 C6          -3.3380     0.3270     1.0020 ca         1 FKQ      -0.015500
      8 C5          -2.0690     0.8990     0.8050 ca         1 FKQ      -0.101000
      9 C4          -1.5080     0.9850    -0.4900 ca         1 FKQ      -0.087600
     10 C7          -0.1530     1.6220    -0.7350 c          1 FKQ       0.607700
     11 O3           0.0520     2.2670    -1.7570 o          1 FKQ      -0.589100
     12 N2           0.8330     1.5440     0.2780 n          1 FKQ      -0.400800
     13 C12          2.0480     2.4020     0.2410 c6         1 FKQ       0.099000
     14 C11          3.2900     1.6150    -0.2420 c6         1 FKQ      -0.107400
     15 C8           1.0150     0.3270     1.1190 c6         1 FKQ       0.099000
     16 C9           2.2460    -0.4990     0.6700 c6         1 FKQ      -0.107400
     17 C10          3.5480     0.3460     0.6240 c6         1 FKQ       0.235300
     18 O4           3.8510     0.7790     1.9530 oh         1 FKQ      -0.658000
     19 C13          4.7180    -0.5070     0.0570 ca         1 FKQ      -0.115300
     20 C14          5.8050    -0.9260     0.8670 ca         1 FKQ      -0.100000
     21 C15          6.8450    -1.7040     0.3310 ca         1 FKQ      -0.110500
     22 C16          6.8190    -2.0880    -1.0180 ca         1 FKQ      -0.104000
     23 C17          5.7440    -1.6980    -1.8300 ca         1 FKQ      -0.110500
     24 C18          4.7020    -0.9200    -1.2970 ca         1 FKQ      -0.100000
     25 N1          -5.3620    -2.4660     0.3750 n8         1 FKQ      -1.007100
     26 H1          -1.8670     0.5960    -2.5960 ha         1 FKQ       0.129500
     27 H2          -4.0950    -0.4130    -2.2570 ha         1 FKQ       0.140000
     28 H3          -3.7460     0.2660     2.0110 ha         1 FKQ       0.140000
     29 H4          -1.5320     1.2910     1.6660 ha         1 FKQ       0.129500
     30 H5           1.8870     3.2720    -0.4110 h1         1 FKQ       0.063450
     31 H6           2.2310     2.7970     1.2510 h1         1 FKQ       0.063450
     32 H7           3.1280     1.3420    -1.2920 hc         1 FKQ       0.060700
     33 H8           4.1720     2.2680    -0.2290 hc         1 FKQ       0.060700
     34 H9           1.1350     0.6320     2.1690 h1         1 FKQ       0.063450
     35 H10          0.1350    -0.3270     1.0690 h1         1 FKQ       0.063450
     36 H11          2.3810    -1.3550     1.3440 hc         1 FKQ       0.060700
     37 H12          2.0420    -0.9210    -0.3230 hc         1 FKQ       0.060700
     38 H13          4.7000     1.2650     1.8920 ho         1 FKQ       0.447000
     39 H14          5.8580    -0.6640     1.9210 ha         1 FKQ       0.116000
     40 H15          7.6730    -2.0140     0.9650 ha         1 FKQ       0.114000
     41 H16          7.6240    -2.6910    -1.4310 ha         1 FKQ       0.115000
     42 H17          5.7150    -2.0020    -2.8740 ha         1 FKQ       0.114000
     43 H18          3.8760    -0.6480    -1.9500 ha         1 FKQ       0.116000
     44 H19         -5.8600    -2.6380     1.2460 hn         1 FKQ       0.474500
     45 H20         -5.9860    -2.8850    -0.3110 hn         1 FKQ       0.474500
@<TRIPOS>BOND
     1     1     2 ar  
     2     1     9 ar  
     3     1    26 1   
     4     2     3 ar  
     5     2    27 1   
     6     3     4 1   
     7     3     7 ar  
     8     4     5 2   
     9     4     6 2   
    10     4    25 1   
    11     7     8 ar  
    12     7    28 1   
    13     8     9 ar  
    14     8    29 1   
    15     9    10 1   
    16    10    11 2   
    17    10    12 1   
    18    12    13 1   
    19    12    15 1   
    20    13    14 1   
    21    13    30 1   
    22    13    31 1   
    23    14    17 1   
    24    14    32 1   
    25    14    33 1   
    26    15    16 1   
    27    15    34 1   
    28    15    35 1   
    29    16    17 1   
    30    16    36 1   
    31    16    37 1   
    32    17    18 1   
    33    17    19 1   
    34    18    38 1   
    35    19    20 ar  
    36    19    24 ar  
    37    20    21 ar  
    38    20    39 1   
    39    21    22 ar  
    40    21    40 1   
    41    22    23 ar  
    42    22    41 1   
    43    23    24 ar  
    44    23    42 1   
    45    24    43 1   
    46    25    44 1   
    47    25    45 1   
@<TRIPOS>SUBSTRUCTURE
     1 FKQ         1 TEMP              0 ****  ****    0 ROOT
