@<TRIPOS>MOLECULE
FKQ
   45    47     1     0     0
SMALL
abcg2


@<TRIPOS>ATOM
      1 C3          -1.9390     0.3690    -1.4100 ca         1 FKQ      -0.101000
      2 C2          -3.1550    -0.2800    -1.2980 ca         1 FKQ      -0.015500
      3 C1          -3.8570    -0.1970    -0.1020 ca         1 FKQ      -0.258500
      4 S1          -5.4390    -0.9870     0.0130 sy         1 FKQ       1.125600
      5 O1          -6.0490    -0.5760     1.2700 o          1 FKQ      -0.541000
      6 O2          -6.1790    -0.7640    -1.2200 o          1 FKQ      -0.541000
      7 C6          -3.3610     0.5140     0.9790 ca         1 FKQ      -0.015500
      8 C5          -2.1300     1.1430     0.8620 ca         1 FKQ      -0.101000
      9 C4          -1.4150     1.0710    -0.3270 ca         1 FKQ      -0.087600
     10 C7          -0.1510     1.8550    -0.5220 c          1 FKQ       0.607700
     11 O3          -0.1150     2.6750    -1.4300 o          1 FKQ      -0.589100
     12 N2           0.8620     1.6450     0.3390 n          1 FKQ      -0.400800
     13 C12          2.0750     2.4440     0.2500 c6         1 FKQ       0.099000
     14 C11          3.2420     1.6060    -0.2550 c6         1 FKQ      -0.107400
     15 C8           0.9920     0.4850     1.2080 c6         1 FKQ       0.099000
     16 C9           2.1420    -0.4020     0.7480 c6         1 FKQ      -0.107400
     17 C10          3.4640     0.3630     0.6210 c6         1 FKQ       0.235300
     18 O4           3.8080     0.7600     1.9310 oh         1 FKQ      -0.658000
     19 C13          4.5260    -0.5490     0.0190 ca         1 FKQ      -0.115300
     20 C14          5.6160    -0.9830     0.7670 ca         1 FKQ      -0.100000
     21 C15          6.5740    -1.8240     0.2100 ca         1 FKQ      -0.110500
     22 C16          6.4550    -2.2510    -1.1030 ca         1 FKQ      -0.104000
     23 C17          5.3660    -1.8330    -1.8570 ca         1 FKQ      -0.110500
     24 C18          4.4130    -0.9930    -1.3000 ca         1 FKQ      -0.100000
     25 N1          -5.0010    -2.5770    -0.0040 n8         1 FKQ      -1.007100
     26 H1          -1.3950     0.3230    -2.3440 ha         1 FKQ       0.129500
     27 H2          -3.5470    -0.8370    -2.1380 ha         1 FKQ       0.140000
     28 H3          -3.9160     0.5840     1.9040 ha         1 FKQ       0.140000
     29 H4          -1.7400     1.7010     1.7040 ha         1 FKQ       0.129500
     30 H5           1.9050     3.2900    -0.4100 h1         1 FKQ       0.063450
     31 H6           2.2920     2.8450     1.2440 h1         1 FKQ       0.063450
     32 H7           3.0480     1.3140    -1.2890 hc         1 FKQ       0.060700
     33 H8           4.1500     2.2160    -0.2670 hc         1 FKQ       0.060700
     34 H9           1.1500     0.8260     2.2340 h1         1 FKQ       0.063450
     35 H10          0.0740    -0.0960     1.2040 h1         1 FKQ       0.063450
     36 H11          2.2610    -1.2290     1.4530 hc         1 FKQ       0.060700
     37 H12          1.8860    -0.8420    -0.2190 hc         1 FKQ       0.060700
     38 H13          4.5390     1.3870     1.8870 ho         1 FKQ       0.447000
     39 H14          5.7300    -0.6740     1.7970 ha         1 FKQ       0.116000
     40 H15          7.4130    -2.1480     0.8120 ha         1 FKQ       0.114000
     41 H16          7.2020    -2.9040    -1.5370 ha         1 FKQ       0.115000
     42 H17          5.2550    -2.1610    -2.8820 ha         1 FKQ       0.114000
     43 H18          3.5720    -0.6870    -1.9100 ha         1 FKQ       0.116000
     44 H19         -4.6120    -2.8890     0.8800 hn         1 FKQ       0.474500
     45 H20         -5.7770    -3.1740    -0.2790 hn         1 FKQ       0.474500
@<TRIPOS>BOND
     1     1     2 ar  
     2     1     9 ar  
     3     1    26 1   
     4     2     3 ar  
     5     2    27 1   
     6     3     4 1   
     7     3     7 ar  
     8     4     5 2   
     9     4     6 2   
    10     4    25 1   
    11     7     8 ar  
    12     7    28 1   
    13     8     9 ar  
    14     8    29 1   
    15     9    10 1   
    16    10    11 2   
    17    10    12 1   
    18    12    13 1   
    19    12    15 1   
    20    13    14 1   
    21    13    30 1   
    22    13    31 1   
    23    14    17 1   
    24    14    32 1   
    25    14    33 1   
    26    15    16 1   
    27    15    34 1   
    28    15    35 1   
    29    16    17 1   
    30    16    36 1   
    31    16    37 1   
    32    17    18 1   
    33    17    19 1   
    34    18    38 1   
    35    19    20 ar  
    36    19    24 ar  
    37    20    21 ar  
    38    20    39 1   
    39    21    22 ar  
    40    21    40 1   
    41    22    23 ar  
    42    22    41 1   
    43    23    24 ar  
    44    23    42 1   
    45    24    43 1   
    46    25    44 1   
    47    25    45 1   
@<TRIPOS>SUBSTRUCTURE
     1 FKQ         1 TEMP              0 ****  ****    0 ROOT
