@<TRIPOS>MOLECULE
FKR
   39    41     1     0     0
SMALL
bcc


@<TRIPOS>ATOM
      1 C2           3.1050    -3.8890     8.3540 ca         1 FKR       0.131600
      2 C3           3.3940    -3.9150    10.7500 ca         1 FKR       0.131900
      3 C4           4.7400    -4.1160    10.6660 ca         1 FKR      -0.145000
      4 O26          9.4030    -4.7540     8.9310 o          1 FKR      -0.614100
      5 C11          7.2840    -4.3800     7.9590 cc         1 FKR      -0.245400
      6 C9           6.4560    -4.1810     6.7730 c          1 FKR       0.711700
      7 N7           5.1230    -4.0320     7.0150 ns         1 FKR      -0.429100
      8 C6           4.5120    -4.0360     8.2430 ca         1 FKR       0.049600
      9 N24          2.3450    -3.7770     7.2110 nu         1 FKR      -0.742600
     10 C25          0.9180    -3.5730     7.3120 c3         1 FKR       0.182100
     11 C8           6.7050    -4.3610     9.1860 cd         1 FKR       0.001800
     12 C5           5.3070    -4.1770     9.3800 ca         1 FKR      -0.087800
     13 F23          2.8130    -3.8360    11.9570 f          1 FKR      -0.145900
     14 C1           2.5700    -3.8110     9.6300 ca         1 FKR      -0.203000
     15 N13          9.3140    -4.5040     6.6700 ns         1 FKR      -0.448100
     16 C14         10.6580    -4.5800     6.2990 ca         1 FKR       0.023600
     17 C16         10.9390    -4.3960     4.9410 ca         1 FKR      -0.187500
     18 C17         12.2390    -4.4420     4.4740 ca         1 FKR      -0.090000
     19 C19         13.3110    -4.6650     5.3360 ca         1 FKR      -0.145600
     20 C20         14.7460    -4.6940     4.8250 c          1 FKR       0.926200
     21 O22         15.6400    -4.8220     5.6830 o          1 FKR      -0.827300
     22 O21         14.8980    -4.5800     3.5920 o          1 FKR      -0.827300
     23 C18         13.0190    -4.8510     6.6820 ca         1 FKR      -0.090000
     24 C15         11.7210    -4.8170     7.1730 ca         1 FKR      -0.187500
     25 H1           5.3600    -4.2160    11.5460 ha         1 FKR       0.162000
     26 H2           4.5640    -3.8320     6.1940 hn         1 FKR       0.331500
     27 H3           2.5840    -4.4360     6.4840 hn         1 FKR       0.404800
     28 H4           0.5080    -3.5150     6.3070 h1         1 FKR       0.038367
     29 H5           0.3970    -4.3730     7.8480 h1         1 FKR       0.038367
     30 H6           0.7030    -2.6300     7.8150 h1         1 FKR       0.038367
     31 H7           7.3260    -4.4880    10.0640 ha         1 FKR       0.171000
     32 H8           1.5050    -3.6880     9.7770 ha         1 FKR       0.150000
     33 H9           8.6430    -4.3470     5.9180 hn         1 FKR       0.347500
     34 H10         10.1270    -4.2120     4.2470 ha         1 FKR       0.123500
     35 H11         12.4250    -4.2950     3.4180 ha         1 FKR       0.144500
     36 H13         13.8290    -5.0300     7.3770 ha         1 FKR       0.144500
     37 H14         11.5510    -4.9700     8.2260 ha         1 FKR       0.123500
     38 O10          6.8760    -4.1340     5.6160 o          1 FKR      -0.640500
     39 C12          8.7700    -4.5680     7.9030 c          1 FKR       0.678300
@<TRIPOS>BOND
     1     1     8 ar  
     2     1     9 1   
     3     1    14 ar  
     4     2     3 ar  
     5     2    13 1   
     6     2    14 ar  
     7     3    12 ar  
     8     3    25 1   
     9     4    39 2   
    10     5     6 1   
    11     5    11 2   
    12     5    39 1   
    13     6     7 1   
    14     6    38 2   
    15     7     8 1   
    16     7    26 1   
    17     8    12 ar  
    18     9    10 1   
    19     9    27 1   
    20    10    28 1   
    21    10    29 1   
    22    10    30 1   
    23    11    12 1   
    24    11    31 1   
    25    14    32 1   
    26    15    16 1   
    27    15    33 1   
    28    15    39 1   
    29    16    17 ar  
    30    16    24 ar  
    31    17    18 ar  
    32    17    34 1   
    33    18    19 ar  
    34    18    35 1   
    35    19    20 1   
    36    19    23 ar  
    37    20    21 1   
    38    20    22 1   
    39    23    24 ar  
    40    23    36 1   
    41    24    37 1   
@<TRIPOS>SUBSTRUCTURE
     1 FKR         1 TEMP              0 ****  ****    0 ROOT
