@<TRIPOS>MOLECULE
FKR
   39    41     1     0     0
SMALL
No Charge or Current Charge


@<TRIPOS>ATOM
      1 C2           3.0460    -3.9750     8.3970 ca         1 FKR       0.270000
      2 C3           3.2430    -4.0860    10.8230 ca         1 FKR       0.167000
      3 C4           4.6360    -4.2010    10.7240 ca         1 FKR      -0.127000
      4 O26          9.4790    -4.5480     9.0610 o          1 FKR      -0.614100
      5 C11          7.3300    -4.3080     8.0770 cc         1 FKR      -0.245400
      6 C9           6.5000    -4.1660     6.8450 c          1 FKR       0.569200
      7 N7           5.1480    -4.0650     7.0640 ns         1 FKR      -0.362100
      8 C6           4.4610    -4.0820     8.3000 ca         1 FKR       0.049600
      9 N24          2.2330    -3.8820     7.2490 nu         1 FKR      -0.936200
     10 C25          0.8200    -3.4590     7.1890 c3         1 FKR       0.182100
     11 C8           6.7030    -4.3160     9.3210 cd         1 FKR      -0.048200
     12 C5           5.2480    -4.1980     9.4580 ca         1 FKR      -0.087800
     13 F23          2.6570    -4.0880    12.0400 f          1 FKR      -0.181000
     14 C1           2.4510    -3.9740     9.6730 ca         1 FKR      -0.185000
     15 N13          9.3950    -4.4220     6.7680 ns         1 FKR      -0.122000
     16 C14         10.7410    -4.5200     6.3100 ca         1 FKR      -0.069000
     17 C16         10.9580    -4.4520     4.9230 ca         1 FKR      -0.169500
     18 C17         12.2550    -4.5400     4.3890 ca         1 FKR      -0.072000
     19 C19         13.3750    -4.7010     5.2360 ca         1 FKR      -0.145600
     20 C20         14.7790    -4.7980     4.6620 c          1 FKR       0.715600
     21 O22         15.7190    -4.9370     5.4330 o          1 FKR      -0.722000
     22 O21         14.9230    -4.7330     3.4490 o          1 FKR      -0.722000
     23 C18         13.1540    -4.7710     6.6300 ca         1 FKR      -0.072000
     24 C15         11.8550    -4.6810     7.1620 ca         1 FKR      -0.169500
     25 H1           5.2330    -4.2900    11.6290 ha         1 FKR       0.144000
     26 H2           4.5940    -3.9310     6.2310 hn         1 FKR       0.331500
     27 H3           2.6710    -4.1070     6.3550 hn         1 FKR       0.460000
     28 H4           0.4690    -3.4420     6.1490 h1         1 FKR       0.038367
     29 H5           0.1830    -4.1520     7.7550 h1         1 FKR       0.038367
     30 H6           0.7020    -2.4510     7.6100 h1         1 FKR       0.038367
     31 H7           7.2980    -4.4140    10.2270 ha         1 FKR       0.221000
     32 H8           1.3750    -3.8960     9.7840 ha         1 FKR       0.132000
     33 H9           8.7230    -4.3220     6.0180 hn         1 FKR       0.181000
     34 H10         10.1140    -4.3280     4.2470 ha         1 FKR       0.105500
     35 H11         12.3860    -4.4830     3.3100 ha         1 FKR       0.126500
     36 H13         13.9930    -4.8950     7.3120 ha         1 FKR       0.126500
     37 H14         11.7410    -4.7410     8.2390 ha         1 FKR       0.105500
     38 O10          6.9210    -4.1320     5.7000 o          1 FKR      -0.565000
     39 C12          8.8170    -4.4360     8.0330 c          1 FKR       0.611300
@<TRIPOS>BOND
     1     1     8 ar  
     2     1     9 1   
     3     1    14 ar  
     4     2     3 ar  
     5     2    13 1   
     6     2    14 ar  
     7     3    12 ar  
     8     3    25 1   
     9     4    39 2   
    10     5     6 1   
    11     5    11 2   
    12     5    39 1   
    13     6     7 1   
    14     6    38 2   
    15     7     8 1   
    16     7    26 1   
    17     8    12 ar  
    18     9    10 1   
    19     9    27 1   
    20    10    28 1   
    21    10    29 1   
    22    10    30 1   
    23    11    12 1   
    24    11    31 1   
    25    14    32 1   
    26    15    16 1   
    27    15    33 1   
    28    15    39 1   
    29    16    17 ar  
    30    16    24 ar  
    31    17    18 ar  
    32    17    34 1   
    33    18    19 ar  
    34    18    35 1   
    35    19    20 1   
    36    19    23 ar  
    37    20    21 1   
    38    20    22 1   
    39    23    24 ar  
    40    23    36 1   
    41    24    37 1   
@<TRIPOS>SUBSTRUCTURE
     1 FKR         1 TEMP              0 ****  ****    0 ROOT
