@<TRIPOS>MOLECULE
FKS
   38    37     1     0     0
SMALL
No Charge or Current Charge


@<TRIPOS>ATOM
      1 C2          -7.8740    -0.4520     0.0150 c3         1 FKS       0.150800
      2 C3          -6.5410     0.3210     0.0070 c3         1 FKS      -0.083400
      3 C4          -5.3190    -0.6170    -0.0290 c3         1 FKS       0.160800
      4 C6          -2.8330    -0.6320    -0.0400 c3         1 FKS       0.161800
      5 C7          -1.6000     0.2950    -0.0170 c3         1 FKS      -0.079400
      6 C8          -0.2650    -0.4830    -0.0280 c3         1 FKS      -0.077400
      7 C9           0.9750     0.4400    -0.0030 c3         1 FKS      -0.072400
      8 C10          2.3110    -0.3600    -0.0140 c3         1 FKS      -0.155400
      9 C11          3.6310     0.4650     0.0100 c3         1 FKS       0.375000
     10 C12          4.9200    -0.4530    -0.0040 c3         1 FKS       0.245000
     11 F15          6.0590     0.2840     0.0170 f          1 FKS      -0.111667
     12 F16          4.9520    -1.2770     1.0720 f          1 FKS      -0.111667
     13 F17          4.9620    -1.2310    -1.1120 f          1 FKS      -0.111667
     14 N5          -4.0710     0.1670    -0.0240 n7         1 FKS      -0.861400
     15 N1          -9.0330     0.4600     0.0410 n8         1 FKS      -0.995200
     16 O13          3.6470     1.3470    -1.1040 oh         1 FKS      -0.626500
     17 O14          3.6370     1.3000     1.1590 oh         1 FKS      -0.626500
     18 H1          -7.9420    -1.0800    -0.8850 h1         1 FKS       0.025700
     19 H2          -7.9190    -1.1040     0.8980 h1         1 FKS       0.025700
     20 H3          -6.5140     0.9860    -0.8660 hc         1 FKS       0.053700
     21 H4          -6.4830     0.9540     0.9010 hc         1 FKS       0.053700
     22 H5          -5.3540    -1.2830     0.8440 h1         1 FKS       0.026700
     23 H6          -5.3740    -1.2420    -0.9310 h1         1 FKS       0.026700
     24 H7          -2.7940    -1.2590    -0.9420 h1         1 FKS       0.027200
     25 H8          -2.7970    -1.2970     0.8340 h1         1 FKS       0.027200
     26 H9          -1.6340     0.9640    -0.8860 hc         1 FKS       0.048700
     27 H10         -1.6420     0.9270     0.8790 hc         1 FKS       0.048700
     28 H11         -0.2330    -1.1530     0.8410 hc         1 FKS       0.039700
     29 H12         -0.2260    -1.1170    -0.9220 hc         1 FKS       0.039700
     30 H13          0.9280     1.1080    -0.8720 hc         1 FKS       0.052700
     31 H14          0.9200     1.0720     0.8920 hc         1 FKS       0.052700
     32 H15          2.3110    -1.0410     0.8470 hc         1 FKS       0.067200
     33 H16          2.3190    -1.0050    -0.9020 hc         1 FKS       0.067200
     34 H17         -4.0700     0.7710    -0.8550 hn         1 FKS       0.407000
     35 H19         -9.8950    -0.0960     0.1060 hn         1 FKS       0.392500
     36 H20         -9.0220     0.9880     0.9220 hn         1 FKS       0.392500
     37 H22          2.7140     1.5030    -1.3490 ho         1 FKS       0.471500
     38 H23          2.7020     1.4450     1.4030 ho         1 FKS       0.471500
@<TRIPOS>BOND
     1     1     2 1   
     2     1    15 1   
     3     1    18 1   
     4     1    19 1   
     5     2     3 1   
     6     2    20 1   
     7     2    21 1   
     8     3    14 1   
     9     3    22 1   
    10     3    23 1   
    11     4     5 1   
    12     4    14 1   
    13     4    24 1   
    14     4    25 1   
    15     5     6 1   
    16     5    26 1   
    17     5    27 1   
    18     6     7 1   
    19     6    28 1   
    20     6    29 1   
    21     7     8 1   
    22     7    30 1   
    23     7    31 1   
    24     8     9 1   
    25     8    32 1   
    26     8    33 1   
    27     9    10 1   
    28     9    16 1   
    29     9    17 1   
    30    10    11 1   
    31    10    12 1   
    32    10    13 1   
    33    14    34 1   
    34    15    35 1   
    35    15    36 1   
    36    16    37 1   
    37    17    38 1   
@<TRIPOS>SUBSTRUCTURE
     1 FKS         1 TEMP              0 ****  ****    0 ROOT
