@<TRIPOS>MOLECULE
FKS
   38    37     1     0     0
SMALL
bcc


@<TRIPOS>ATOM
      1 C2          -7.7870    -0.5120     0.0200 c3         1 FKS       0.150800
      2 C3          -6.5180     0.3250    -0.0050 c3         1 FKS      -0.083400
      3 C4          -5.2610    -0.5300     0.0100 c3         1 FKS       0.160800
      4 C6          -2.8420    -0.4970    -0.0050 c3         1 FKS       0.161800
      5 C7          -1.6080     0.3910    -0.0300 c3         1 FKS      -0.079400
      6 C8          -0.3130    -0.4100    -0.0210 c3         1 FKS      -0.077400
      7 C9           0.9270     0.4770    -0.0240 c3         1 FKS      -0.072400
      8 C10          2.2060    -0.3560    -0.0310 c3         1 FKS      -0.155400
      9 C11          3.4810     0.4860     0.0270 c3         1 FKS       0.328600
     10 C12          4.7410    -0.4090    -0.0340 c3         1 FKS       0.608900
     11 F15          5.8590     0.3160     0.0350 f          1 FKS      -0.232967
     12 F16          4.7750    -1.2880     0.9770 f          1 FKS      -0.232967
     13 F17          4.7960    -1.1140    -1.1720 f          1 FKS      -0.232967
     14 N5          -4.0620     0.2870    -0.0080 n7         1 FKS      -0.806200
     15 N1          -8.9690     0.3390     0.0160 n8         1 FKS      -0.884800
     16 O13          3.5750     1.4030    -1.0150 oh         1 FKS      -0.564300
     17 O14          3.5770     1.2460     1.1860 oh         1 FKS      -0.564300
     18 H1          -7.8170    -1.1430    -0.8730 h1         1 FKS       0.025700
     19 H2          -7.7450    -1.1970     0.8790 h1         1 FKS       0.025700
     20 H3          -6.5260     0.9590    -0.8990 hc         1 FKS       0.053700
     21 H4          -6.5030     0.9980     0.8580 hc         1 FKS       0.053700
     22 H5          -5.2460    -1.1350     0.9220 h1         1 FKS       0.026700
     23 H6          -5.2960    -1.2450    -0.8290 h1         1 FKS       0.026700
     24 H7          -2.7950    -1.2080    -0.8470 h1         1 FKS       0.027200
     25 H8          -2.8290    -1.1050     0.9060 h1         1 FKS       0.027200
     26 H9          -1.6350     1.0270    -0.9220 hc         1 FKS       0.048700
     27 H10         -1.6340     1.0650     0.8320 hc         1 FKS       0.048700
     28 H11         -0.2920    -1.0600     0.8600 hc         1 FKS       0.039700
     29 H12         -0.2870    -1.0740    -0.8920 hc         1 FKS       0.039700
     30 H13          0.8960     1.1330    -0.8970 hc         1 FKS       0.052700
     31 H14          0.9000     1.1290     0.8540 hc         1 FKS       0.052700
     32 H15          2.1920    -1.0460     0.8180 hc         1 FKS       0.067200
     33 H16          2.2210    -0.9830    -0.9280 hc         1 FKS       0.067200
     34 H17         -4.0750     0.8630    -0.8430 hn         1 FKS       0.351800
     35 H19         -9.8000    -0.2390    -0.0030 hn         1 FKS       0.337300
     36 H20         -9.0130     0.8470     0.8910 hn         1 FKS       0.337300
     37 H22          3.1710     1.0480    -1.8130 ho         1 FKS       0.432500
     38 H23          3.0910     0.8280     1.9040 ho         1 FKS       0.432500
@<TRIPOS>BOND
     1     1     2 1   
     2     1    15 1   
     3     1    18 1   
     4     1    19 1   
     5     2     3 1   
     6     2    20 1   
     7     2    21 1   
     8     3    14 1   
     9     3    22 1   
    10     3    23 1   
    11     4     5 1   
    12     4    14 1   
    13     4    24 1   
    14     4    25 1   
    15     5     6 1   
    16     5    26 1   
    17     5    27 1   
    18     6     7 1   
    19     6    28 1   
    20     6    29 1   
    21     7     8 1   
    22     7    30 1   
    23     7    31 1   
    24     8     9 1   
    25     8    32 1   
    26     8    33 1   
    27     9    10 1   
    28     9    16 1   
    29     9    17 1   
    30    10    11 1   
    31    10    12 1   
    32    10    13 1   
    33    14    34 1   
    34    15    35 1   
    35    15    36 1   
    36    16    37 1   
    37    17    38 1   
@<TRIPOS>SUBSTRUCTURE
     1 FKS         1 TEMP              0 ****  ****    0 ROOT
