@<TRIPOS>MOLECULE
FKT
   82    87     1     0     0
SMALL
abcg2


@<TRIPOS>ATOM
      1 C13         20.7800   -31.2730    20.4110 ca         1 FKT       0.065000
      2 C15         19.9130   -29.8350    18.6770 ca         1 FKT       0.140100
      3 C17         21.4550   -31.6230    18.1500 ca         1 FKT      -0.124600
      4 C20         18.4610   -27.9810    19.0770 c3         1 FKT       0.158600
      5 C22         22.3270   -32.2790    17.1220 c          1 FKT       0.624700
      6 C24         17.1000   -29.3230    25.1790 c3         1 FKT       0.201800
      7 C26         17.1300   -28.5860    19.5000 c3         1 FKT      -0.115400
      8 C28         17.0460   -27.8210    21.9210 c3         1 FKT      -0.161400
      9 C01         18.7060   -30.6650    26.4410 cc         1 FKT       0.593900
     10 N02         19.2980   -30.9420    25.2990 nd         1 FKT      -0.578800
     11 N03         20.3320   -31.7820    25.3690 na         1 FKT       0.293900
     12 C04         20.8510   -32.3570    26.4950 cd         1 FKT      -0.149000
     13 C05         20.2320   -32.0370    27.7160 cd         1 FKT       0.007000
     14 C06         19.1700   -31.1980    27.6970 cc         1 FKT      -0.201000
     15 C07         21.0840   -32.2200    24.3110 cd         1 FKT      -0.009800
     16 C08         22.0320   -33.0600    24.8820 cc         1 FKT      -0.017400
     17 N09         21.8860   -33.1390    26.2100 nc         1 FKT      -0.259600
     18 N10         17.6180   -29.8600    26.4180 nh         1 FKT      -0.786300
     19 C11         20.8910   -31.8540    22.9740 ch         1 FKT      -0.087300
     20 C12         20.8270   -31.5920    21.7950 cg         1 FKT      -0.107000
     21 C14         19.9840   -30.1920    20.0140 ca         1 FKT      -0.161000
     22 C16         20.6550   -30.5640    17.7470 ca         1 FKT      -0.126000
     23 C18         21.5310   -32.0180    19.4910 ca         1 FKT      -0.034300
     24 O19         19.1950   -28.8110    18.1870 os         1 FKT      -0.342100
     25 C23         17.7430   -27.9800    24.7730 c3         1 FKT       0.080000
     26 N25         16.7990   -27.0370    24.2210 ns         1 FKT      -0.515900
     27 C27         16.4180   -27.7180    20.5350 c3         1 FKT      -0.065400
     28 C29         16.3720   -26.9320    22.9450 c          1 FKT       0.603100
     29 O30         15.4980   -26.1340    22.6360 o          1 FKT      -0.598100
     30 C31         17.0560   -29.3500    27.6540 c3         1 FKT       0.211100
     31 N32         21.6680   -32.6720    15.9990 ns         1 FKT      -0.149000
     32 O33         23.5220   -32.4190    17.2950 o          1 FKT      -0.558100
     33 C34         22.1970   -33.2070    14.8230 ca         1 FKT       0.000000
     34 C35         21.3600   -33.2090    13.7080 ca         1 FKT      -0.161000
     35 C36         21.7930   -33.7460    12.5080 ca         1 FKT       0.035800
     36 C37         23.0720   -34.2750    12.3890 ca         1 FKT      -0.103000
     37 C38         23.9010   -34.2550    13.4990 ca         1 FKT      -0.152300
     38 C39         23.4850   -33.7310    14.7160 ca         1 FKT      -0.093000
     39 N40         20.9280   -33.7500    11.4000 na         1 FKT      -0.083300
     40 C41         21.2680   -33.5190    10.0860 cc         1 FKT      -0.217000
     41 C42         20.1100   -33.6260     9.3750 cd         1 FKT       0.254300
     42 N43         19.0740   -33.9280    10.2240 nd         1 FKT      -0.668000
     43 C44         19.5930   -33.9930    11.4170 cc         1 FKT       0.407400
     44 C45         19.9060   -33.4480     7.9120 c3         1 FKT      -0.110400
     45 C46         25.2990   -34.7940    13.3790 c3         1 FKT       0.358300
     46 F47         25.7410   -35.3070    14.5300 f          1 FKT      -0.109333
     47 F48         25.3910   -35.7570    12.4570 f          1 FKT      -0.109333
     48 F49         26.1670   -33.8370    13.0240 f          1 FKT      -0.109333
     49 H1          19.0820   -27.7100    19.9380 h1         1 FKT       0.057700
     50 H2          18.2780   -27.0600    18.5220 h1         1 FKT       0.057700
     51 H3          23.3790   -32.8730    20.1940 hc         1 FKT       0.054367
     52 H4          21.9360   -33.6280    20.8490 hc         1 FKT       0.054367
     53 H5          22.4280   -33.9640    19.1990 hc         1 FKT       0.054367
     54 H6          16.0280   -29.1720    25.3120 h1         1 FKT       0.068200
     55 H7          17.2180   -30.0610    24.3860 h1         1 FKT       0.068200
     56 H8          16.4990   -28.6850    18.6150 hc         1 FKT       0.056200
     57 H9          17.2640   -29.5960    19.8990 hc         1 FKT       0.056200
     58 H10         17.0160   -28.8620    22.2570 hc         1 FKT       0.059200
     59 H11         18.1080   -27.5580    21.8890 hc         1 FKT       0.059200
     60 H12         20.6070   -32.4620    28.6370 ha         1 FKT       0.150000
     61 H13         18.6730   -30.9410    28.6190 ha         1 FKT       0.135000
     62 H14         22.8060   -33.5950    24.3510 h4         1 FKT       0.236000
     63 H15         19.4390   -29.6560    20.7790 ha         1 FKT       0.128000
     64 H16         20.6210   -30.2620    16.7070 ha         1 FKT       0.131000
     65 H17         18.5650   -28.1410    24.0760 h1         1 FKT       0.061200
     66 H18         18.1800   -27.5110    25.6560 h1         1 FKT       0.061200
     67 H19         16.3040   -26.4610    24.8860 hn         1 FKT       0.313500
     68 H20         16.4130   -26.6780    20.2000 hc         1 FKT       0.060700
     69 H21         15.3720   -28.0250    20.5910 hc         1 FKT       0.060700
     70 H22         17.7900   -28.8090    28.2540 h1         1 FKT       0.044700
     71 H23         16.2560   -28.6560    27.4120 h1         1 FKT       0.044700
     72 H24         16.6250   -30.1440    28.2660 h1         1 FKT       0.044700
     73 H25         20.6690   -32.5200    15.9880 hn         1 FKT       0.163000
     74 H26         20.3740   -32.7670    13.7790 ha         1 FKT       0.129000
     75 H27         23.3920   -34.7080    11.4510 ha         1 FKT       0.146000
     76 H28         24.1410   -33.7360    15.5690 ha         1 FKT       0.168000
     77 H29         22.2730   -33.2740     9.7850 h4         1 FKT       0.162000
     78 H30         19.0640   -34.2330    12.3280 h5         1 FKT       0.056100
     79 H31         19.5230   -34.3600     7.4510 hc         1 FKT       0.045367
     80 H32         19.1860   -32.6550     7.7060 hc         1 FKT       0.045367
     81 H33         20.8400   -33.1900     7.4160 hc         1 FKT       0.045367
     82 C21         22.3600   -33.1810    19.9520 c3         1 FKT      -0.049800
@<TRIPOS>BOND
     1     1    20 1   
     2     1    21 ar  
     3     1    23 ar  
     4     2    21 ar  
     5     2    22 ar  
     6     2    24 1   
     7     3     5 1   
     8     3    22 ar  
     9     3    23 ar  
    10     4     7 1   
    11     4    24 1   
    12     4    49 1   
    13     4    50 1   
    14     5    31 1   
    15     5    32 2   
    16     6    18 1   
    17     6    25 1   
    18     6    54 1   
    19     6    55 1   
    20     7    27 1   
    21     7    56 1   
    22     7    57 1   
    23     8    27 1   
    24     8    28 1   
    25     8    58 1   
    26     8    59 1   
    27     9    10 2   
    28     9    14 1   
    29     9    18 1   
    30    10    11 1   
    31    11    12 1   
    32    11    15 1   
    33    12    13 1   
    34    12    17 2   
    35    13    14 2   
    36    13    60 1   
    37    14    61 1   
    38    15    16 2   
    39    15    19 1   
    40    16    17 1   
    41    16    62 1   
    42    18    30 1   
    43    19    20 3   
    44    21    63 1   
    45    22    64 1   
    46    23    82 1   
    47    25    26 1   
    48    25    65 1   
    49    25    66 1   
    50    26    28 1   
    51    26    67 1   
    52    27    68 1   
    53    27    69 1   
    54    28    29 2   
    55    30    70 1   
    56    30    71 1   
    57    30    72 1   
    58    31    33 1   
    59    31    73 1   
    60    33    34 ar  
    61    33    38 ar  
    62    34    35 ar  
    63    34    74 1   
    64    35    36 ar  
    65    35    39 1   
    66    36    37 ar  
    67    36    75 1   
    68    37    38 ar  
    69    37    45 1   
    70    38    76 1   
    71    39    40 1   
    72    39    43 1   
    73    40    41 2   
    74    40    77 1   
    75    41    42 1   
    76    41    44 1   
    77    42    43 2   
    78    43    78 1   
    79    44    79 1   
    80    44    80 1   
    81    44    81 1   
    82    45    46 1   
    83    45    47 1   
    84    45    48 1   
    85    51    82 1   
    86    52    82 1   
    87    53    82 1   
@<TRIPOS>SUBSTRUCTURE
     1 FKT         1 TEMP              0 ****  ****    0 ROOT
