@<TRIPOS>MOLECULE
FKT
   82    87     1     0     0
SMALL
No Charge or Current Charge


@<TRIPOS>ATOM
      1 C13         20.8490   -31.5600    20.5960 ca         1 FKT       0.065000
      2 C15         19.9380   -30.1920    18.7990 ca         1 FKT       0.140100
      3 C17         21.5390   -31.9860    18.2750 ca         1 FKT      -0.124600
      4 C20         18.1870   -28.4660    19.1380 c3         1 FKT       0.158600
      5 C22         22.3620   -32.7090    17.2140 c          1 FKT       0.624700
      6 C24         17.1610   -28.8770    25.5260 c3         1 FKT       0.201800
      7 C26         16.9590   -29.3870    19.3450 c3         1 FKT      -0.115400
      8 C28         16.3880   -29.1100    21.8650 c3         1 FKT      -0.161400
      9 C01         19.1450   -29.9640    26.6210 cc         1 FKT       0.593900
     10 N02         19.5660   -30.4530    25.4530 nd         1 FKT      -0.578800
     11 N03         20.4780   -31.4820    25.6370 na         1 FKT       0.293900
     12 C04         20.9040   -31.9660    26.8490 cd         1 FKT      -0.149000
     13 C05         20.4420   -31.4370    28.0810 cd         1 FKT       0.007000
     14 C06         19.5430   -30.4120    27.9400 cc         1 FKT      -0.201000
     15 C07         21.0910   -32.1760    24.6170 cd         1 FKT      -0.009800
     16 C08         21.8820   -33.0800    25.2960 cc         1 FKT      -0.017400
     17 N09         21.7660   -32.9510    26.6670 nc         1 FKT      -0.259600
     18 N10         18.2280   -28.9250    26.5630 nh         1 FKT      -0.786300
     19 C11         20.9430   -31.9740    23.2190 ch         1 FKT      -0.087300
     20 C12         20.8970   -31.7990    22.0120 cg         1 FKT      -0.107000
     21 C14         20.0270   -30.5100    20.1630 ca         1 FKT      -0.161000
     22 C16         20.6940   -30.9190    17.8730 ca         1 FKT      -0.126000
     23 C18         21.6040   -32.3250    19.6620 ca         1 FKT      -0.034300
     24 O19         19.1530   -29.1590    18.3220 os         1 FKT      -0.342100
     25 C23         17.3010   -27.7290    24.4930 c3         1 FKT       0.080000
     26 N25         16.0500   -27.4900    23.7480 ns         1 FKT      -0.515900
     27 C27         15.9570   -28.8560    20.3960 c3         1 FKT      -0.065400
     28 C29         15.4770   -28.3730    22.8620 c          1 FKT       0.603100
     29 O30         14.2640   -28.5030    22.8470 o          1 FKT      -0.598100
     30 C31         18.1510   -27.8890    27.6240 c3         1 FKT       0.211100
     31 N32         21.7910   -32.7240    15.9460 ns         1 FKT      -0.149000
     32 O33         23.4700   -33.1770    17.4480 o          1 FKT      -0.558100
     33 C34         22.2210   -33.2700    14.7040 ca         1 FKT       0.000000
     34 C35         21.4710   -32.9420    13.5610 ca         1 FKT      -0.161000
     35 C36         21.8300   -33.4350    12.2920 ca         1 FKT       0.035800
     36 C37         22.9530   -34.2760    12.1730 ca         1 FKT      -0.103000
     37 C38         23.7110   -34.6350    13.3080 ca         1 FKT      -0.152300
     38 C39         23.3400   -34.1210    14.5700 ca         1 FKT      -0.093000
     39 N40         21.0810   -33.0920    11.1610 na         1 FKT      -0.083300
     40 C41         21.5980   -32.8700     9.9090 cc         1 FKT      -0.217000
     41 C42         20.4910   -32.5820     9.1490 cd         1 FKT       0.254300
     42 N43         19.3310   -32.6280     9.9060 nd         1 FKT      -0.668000
     43 C44         19.7140   -32.9430    11.1390 cc         1 FKT       0.407400
     44 C45         20.4550   -32.2470     7.6860 c3         1 FKT      -0.110400
     45 C46         24.9350   -35.5520    13.1810 c3         1 FKT       0.358300
     46 F47         25.0560   -36.3890    14.2360 f          1 FKT      -0.109333
     47 F48         24.8900   -36.3310    12.0750 f          1 FKT      -0.109333
     48 F49         26.0790   -34.8360    13.1120 f          1 FKT      -0.109333
     49 H1          18.6230   -28.1560    20.0960 h1         1 FKT       0.057700
     50 H2          17.8550   -27.5530    18.6280 h1         1 FKT       0.057700
     51 H3          23.5100   -33.2350    20.2230 hc         1 FKT       0.054367
     52 H4          22.1440   -33.9060    21.1190 hc         1 FKT       0.054367
     53 H5          22.3760   -34.3650    19.4570 hc         1 FKT       0.054367
     54 H6          16.1930   -28.7550    26.0330 h1         1 FKT       0.068200
     55 H7          17.0970   -29.8300    24.9830 h1         1 FKT       0.068200
     56 H8          16.4430   -29.4860    18.3830 hc         1 FKT       0.056200
     57 H9          17.2750   -30.3970    19.6330 hc         1 FKT       0.056200
     58 H10         16.3210   -30.1840    22.0730 hc         1 FKT       0.059200
     59 H11         17.4320   -28.8170    22.0030 hc         1 FKT       0.059200
     60 H12         20.7670   -31.8120    29.0470 ha         1 FKT       0.150000
     61 H13         19.1190   -29.9550    28.8240 ha         1 FKT       0.135000
     62 H14         22.5450   -33.8280    24.8740 h4         1 FKT       0.236000
     63 H15         19.4690   -29.9490    20.9060 ha         1 FKT       0.128000
     64 H16         20.6310   -30.6170    16.8300 ha         1 FKT       0.131000
     65 H17         18.1320   -27.9400    23.8110 h1         1 FKT       0.061200
     66 H18         17.5480   -26.8000    25.0220 h1         1 FKT       0.061200
     67 H19         15.3730   -26.8980    24.2160 hn         1 FKT       0.313500
     68 H20         15.8030   -27.7810    20.2350 hc         1 FKT       0.060700
     69 H21         14.9850   -29.3370    20.2290 hc         1 FKT       0.060700
     70 H22         19.1540   -27.6350    27.9920 h1         1 FKT       0.044700
     71 H23         17.6890   -26.9670    27.2480 h1         1 FKT       0.044700
     72 H24         17.5480   -28.2480    28.4690 h1         1 FKT       0.044700
     73 H25         20.8860   -32.2760    15.9000 hn         1 FKT       0.163000
     74 H26         20.6120   -32.2820    13.6630 ha         1 FKT       0.129000
     75 H27         23.2300   -34.6610    11.1940 ha         1 FKT       0.146000
     76 H28         23.9310   -34.4000    15.4370 ha         1 FKT       0.168000
     77 H29         22.6500   -32.9170     9.6590 h4         1 FKT       0.162000
     78 H30         19.0810   -33.0800    12.0080 h5         1 FKT       0.056100
     79 H31         19.8400   -32.9680     7.1340 hc         1 FKT       0.045367
     80 H32         20.0350   -31.2480     7.5230 hc         1 FKT       0.045367
     81 H33         21.4610   -32.2640     7.2530 hc         1 FKT       0.045367
     82 C21         22.4530   -33.5150    20.1440 c3         1 FKT      -0.049800
@<TRIPOS>BOND
     1     1    20 1   
     2     1    21 ar  
     3     1    23 ar  
     4     2    21 ar  
     5     2    22 ar  
     6     2    24 1   
     7     3     5 1   
     8     3    22 ar  
     9     3    23 ar  
    10     4     7 1   
    11     4    24 1   
    12     4    49 1   
    13     4    50 1   
    14     5    31 1   
    15     5    32 2   
    16     6    18 1   
    17     6    25 1   
    18     6    54 1   
    19     6    55 1   
    20     7    27 1   
    21     7    56 1   
    22     7    57 1   
    23     8    27 1   
    24     8    28 1   
    25     8    58 1   
    26     8    59 1   
    27     9    10 2   
    28     9    14 1   
    29     9    18 1   
    30    10    11 1   
    31    11    12 1   
    32    11    15 1   
    33    12    13 1   
    34    12    17 2   
    35    13    14 2   
    36    13    60 1   
    37    14    61 1   
    38    15    16 2   
    39    15    19 1   
    40    16    17 1   
    41    16    62 1   
    42    18    30 1   
    43    19    20 3   
    44    21    63 1   
    45    22    64 1   
    46    23    82 1   
    47    25    26 1   
    48    25    65 1   
    49    25    66 1   
    50    26    28 1   
    51    26    67 1   
    52    27    68 1   
    53    27    69 1   
    54    28    29 2   
    55    30    70 1   
    56    30    71 1   
    57    30    72 1   
    58    31    33 1   
    59    31    73 1   
    60    33    34 ar  
    61    33    38 ar  
    62    34    35 ar  
    63    34    74 1   
    64    35    36 ar  
    65    35    39 1   
    66    36    37 ar  
    67    36    75 1   
    68    37    38 ar  
    69    37    45 1   
    70    38    76 1   
    71    39    40 1   
    72    39    43 1   
    73    40    41 2   
    74    40    77 1   
    75    41    42 1   
    76    41    44 1   
    77    42    43 2   
    78    43    78 1   
    79    44    79 1   
    80    44    80 1   
    81    44    81 1   
    82    45    46 1   
    83    45    47 1   
    84    45    48 1   
    85    51    82 1   
    86    52    82 1   
    87    53    82 1   
@<TRIPOS>SUBSTRUCTURE
     1 FKT         1 TEMP              0 ****  ****    0 ROOT
