@<TRIPOS>MOLECULE
FKU
   52    54     1     0     0
SMALL
No Charge or Current Charge


@<TRIPOS>ATOM
      1 C24         -9.2260     1.5790    10.6400 c3         1 FKU       0.142800
      2 C26         -1.0910     3.3240     7.2140 c3         1 FKU       0.181100
      3 O27         -7.0430     3.8650     5.8200 o          1 FKU      -0.592000
      4 C13        -10.8020     4.5190     6.1720 ca         1 FKU      -0.065000
      5 C14        -10.9270     4.5310     4.7720 ca         1 FKU      -0.170000
      6 C15        -12.1850     4.6570     4.1590 ca         1 FKU      -0.073500
      7 C16        -13.3590     4.7690     4.9390 ca         1 FKU      -0.146600
      8 C17        -13.2310     4.7470     6.3460 ca         1 FKU      -0.073500
      9 C19        -14.7230     4.9060     4.2810 c          1 FKU       0.715600
     10 C5          -4.6950     3.6970     8.4580 ca         1 FKU       0.072600
     11 C6          -3.2900     3.4900     8.5560 ca         1 FKU       0.260000
     12 C4          -5.4650     4.0640     9.5710 ca         1 FKU      -0.114800
     13 C7          -6.9320     4.2240     9.4460 cc         1 FKU       0.333800
     14 C3          -4.7880     4.3080    10.7920 ca         1 FKU      -0.127000
     15 C2          -3.4030     4.1260    10.8930 ca         1 FKU       0.156000
     16 F30         -2.7830     4.3540    12.0710 f          1 FKU      -0.183000
     17 N21         -7.6970     4.3510    10.5810 nu         1 FKU      -0.814200
     18 C22         -7.6890     3.3960    11.7010 c3         1 FKU       0.220800
     19 C23         -9.0170     2.6130    11.7690 c3         1 FKU      -0.096400
     20 N31         -8.2780     0.4490    10.7330 n8         1 FKU      -1.006200
     21 C8          -7.5060     4.2170     8.1700 cd         1 FKU      -0.421400
     22 C9          -6.6650     3.8980     6.9770 c          1 FKU       0.595200
     23 N10         -5.3610     3.6210     7.2340 ns         1 FKU      -0.377100
     24 C1          -2.6560     3.7060     9.7890 ca         1 FKU      -0.176000
     25 C11         -8.9790     4.5060     7.9990 c          1 FKU       0.631300
     26 O28         -9.6940     4.8450     8.9380 o          1 FKU      -0.674100
     27 N12         -9.4920     4.3800     6.7130 ns         1 FKU      -0.120000
     28 C18        -11.9700     4.6210     6.9560 ca         1 FKU      -0.170000
     29 O29        -15.7120     4.9990     4.9950 o          1 FKU      -0.723500
     30 O20        -14.7860     4.9180     3.0590 o          1 FKU      -0.723500
     31 H1          -9.1220     2.0610     9.6580 h1         1 FKU       0.043700
     32 H2         -10.2470     1.1780    10.7130 h1         1 FKU       0.043700
     33 H3          -0.7890     2.9330     6.2340 h1         1 FKU       0.038033
     34 H4          -0.8790     4.4010     7.2380 h1         1 FKU       0.038033
     35 H5          -0.4820     2.8290     7.9830 h1         1 FKU       0.038033
     36 H6         -10.0400     4.4460     4.1470 ha         1 FKU       0.105500
     37 H7         -12.2450     4.6670     3.0730 ha         1 FKU       0.125000
     38 H8         -14.1140     4.8240     6.9780 ha         1 FKU       0.125000
     39 H9          -5.3240     4.6530    11.6710 ha         1 FKU       0.142000
     40 H10         -8.6400     4.6640    10.3100 hn         1 FKU       0.548000
     41 H11         -6.8510     2.6910    11.6150 h1         1 FKU       0.051700
     42 H12         -7.5580     3.9480    12.6420 h1         1 FKU       0.051700
     43 H13         -9.8540     3.3220    11.7650 hc         1 FKU       0.057200
     44 H14         -9.0660     2.0920    12.7330 hc         1 FKU       0.057200
     45 H15         -8.4680    -0.2120     9.9690 hn         1 FKU       0.392500
     46 H16         -7.3320     0.7870    10.5260 hn         1 FKU       0.392500
     47 H18         -4.7950     3.4500     6.4160 hn         1 FKU       0.333500
     48 H19         -3.0290     2.5970     6.6960 hn         1 FKU       0.461000
     49 H20         -1.5870     3.5580     9.8980 ha         1 FKU       0.133000
     50 H21         -8.7960     4.1330     6.0220 hn         1 FKU       0.190000
     51 H22        -11.9270     4.5950     8.0400 ha         1 FKU       0.105500
     52 N25         -2.5280     3.0760     7.4460 nu         1 FKU      -0.934200
@<TRIPOS>BOND
     1     1    19 1   
     2     1    20 1   
     3     1    31 1   
     4     1    32 1   
     5     2    33 1   
     6     2    34 1   
     7     2    35 1   
     8     2    52 1   
     9     3    22 2   
    10     4     5 ar  
    11     4    27 1   
    12     4    28 ar  
    13     5     6 ar  
    14     5    36 1   
    15     6     7 ar  
    16     6    37 1   
    17     7     8 ar  
    18     7     9 1   
    19     8    28 ar  
    20     8    38 1   
    21     9    29 1   
    22     9    30 1   
    23    10    11 ar  
    24    10    12 ar  
    25    10    23 1   
    26    11    24 ar  
    27    11    52 1   
    28    12    13 1   
    29    12    14 ar  
    30    13    17 1   
    31    13    21 2   
    32    14    15 ar  
    33    14    39 1   
    34    15    16 1   
    35    15    24 ar  
    36    17    18 1   
    37    17    40 1   
    38    18    19 1   
    39    18    41 1   
    40    18    42 1   
    41    19    43 1   
    42    19    44 1   
    43    20    45 1   
    44    20    46 1   
    45    21    22 1   
    46    21    25 1   
    47    22    23 1   
    48    23    47 1   
    49    24    49 1   
    50    25    26 2   
    51    25    27 1   
    52    27    50 1   
    53    28    51 1   
    54    48    52 1   
@<TRIPOS>SUBSTRUCTURE
     1 FKU         1 TEMP              0 ****  ****    0 ROOT
