@<TRIPOS>MOLECULE
FKU
   52    54     1     0     0
SMALL
abcg2


@<TRIPOS>ATOM
      1 C24         -9.1100     1.3840    11.0340 c3         1 FKU       0.142800
      2 C26         -1.2200     3.3100     7.3800 c3         1 FKU       0.181100
      3 O27         -7.1140     3.5870     5.7340 o          1 FKU      -0.592000
      4 C13        -10.7650     4.4820     6.0860 ca         1 FKU      -0.065000
      5 C14        -10.9270     4.3820     4.6990 ca         1 FKU      -0.170000
      6 C15        -12.1530     4.6200     4.1060 ca         1 FKU      -0.073500
      7 C16        -13.2680     4.9720     4.8640 ca         1 FKU      -0.146600
      8 C17        -13.0980     5.0620     6.2400 ca         1 FKU      -0.073500
      9 C19        -14.6160     5.2530     4.2110 c          1 FKU       0.715600
     10 C5          -4.8050     3.6770     8.3780 ca         1 FKU       0.072600
     11 C6          -3.3870     3.6600     8.4520 ca         1 FKU       0.260000
     12 C4          -5.5870     3.9440     9.4970 ca         1 FKU      -0.114800
     13 C7          -7.0370     3.9820     9.3370 cc         1 FKU       0.333800
     14 C3          -4.9570     4.2650    10.7160 ca         1 FKU      -0.127000
     15 C2          -3.5950     4.2170    10.7730 ca         1 FKU       0.156000
     16 F30         -2.9790     4.5210    11.9280 f          1 FKU      -0.183000
     17 N21         -7.8200     4.0190    10.4170 nu         1 FKU      -0.814200
     18 C22         -7.6200     3.3580    11.7000 c3         1 FKU       0.220800
     19 C23         -8.8300     2.4960    12.0390 c3         1 FKU      -0.096400
     20 N31         -7.9820     0.4720    10.9090 n8         1 FKU      -1.006200
     21 C8          -7.5780     4.0350     8.0340 cd         1 FKU      -0.421400
     22 C9          -6.7320     3.7120     6.9070 c          1 FKU       0.595200
     23 N10         -5.4160     3.4730     7.1710 ns         1 FKU      -0.377100
     24 C1          -2.7960     3.9060     9.6790 ca         1 FKU      -0.176000
     25 C11         -9.0240     4.2840     7.8420 c          1 FKU       0.631300
     26 O28         -9.7680     4.5410     8.7960 o          1 FKU      -0.674100
     27 N12         -9.4820     4.2350     6.5730 ns         1 FKU      -0.120000
     28 C18        -11.8790     4.8220     6.8580 ca         1 FKU      -0.170000
     29 O29        -15.5340     5.6210     4.9690 o          1 FKU      -0.723500
     30 O20        -14.6810     5.0930     2.9760 o          1 FKU      -0.723500
     31 H1          -9.4260     1.8250    10.0790 h1         1 FKU       0.043700
     32 H2          -9.9680     0.8140    11.3980 h1         1 FKU       0.043700
     33 H3          -0.8420     3.0610     6.3910 h1         1 FKU       0.038033
     34 H4          -0.7510     4.2470     7.6990 h1         1 FKU       0.038033
     35 H5          -0.9070     2.5220     8.0640 h1         1 FKU       0.038033
     36 H6         -10.0770     4.1180     4.0800 ha         1 FKU       0.105500
     37 H7         -12.2420     4.5350     3.0310 ha         1 FKU       0.125000
     38 H8         -13.9440     5.3280     6.8600 ha         1 FKU       0.125000
     39 H9          -5.5130     4.5850    11.5830 ha         1 FKU       0.142000
     40 H10         -8.7910     4.2160    10.1740 hn         1 FKU       0.548000
     41 H11         -6.7260     2.7370    11.6680 h1         1 FKU       0.051700
     42 H12         -7.4670     4.0960    12.4920 h1         1 FKU       0.051700
     43 H13         -9.7170     3.1280    12.1310 hc         1 FKU       0.057200
     44 H14         -8.6530     2.0590    13.0250 hc         1 FKU       0.057200
     45 H15         -8.2710    -0.3440    10.3840 hn         1 FKU       0.392500
     46 H16         -7.2520     0.8980    10.3520 hn         1 FKU       0.392500
     47 H18         -4.8770     3.1160     6.3950 hn         1 FKU       0.333500
     48 H19         -2.9810     3.8630     6.4870 hn         1 FKU       0.461000
     49 H20         -1.7210     3.9130     9.7910 ha         1 FKU       0.133000
     50 H21         -8.7640     3.9910     5.8860 hn         1 FKU       0.190000
     51 H22        -11.8050     4.9050     7.9290 ha         1 FKU       0.105500
     52 N25         -2.6620     3.3750     7.3130 nu         1 FKU      -0.934200
@<TRIPOS>BOND
     1     1    19 1   
     2     1    20 1   
     3     1    31 1   
     4     1    32 1   
     5     2    33 1   
     6     2    34 1   
     7     2    35 1   
     8     2    52 1   
     9     3    22 2   
    10     4     5 ar  
    11     4    27 1   
    12     4    28 ar  
    13     5     6 ar  
    14     5    36 1   
    15     6     7 ar  
    16     6    37 1   
    17     7     8 ar  
    18     7     9 1   
    19     8    28 ar  
    20     8    38 1   
    21     9    29 1   
    22     9    30 1   
    23    10    11 ar  
    24    10    12 ar  
    25    10    23 1   
    26    11    24 ar  
    27    11    52 1   
    28    12    13 1   
    29    12    14 ar  
    30    13    17 1   
    31    13    21 2   
    32    14    15 ar  
    33    14    39 1   
    34    15    16 1   
    35    15    24 ar  
    36    17    18 1   
    37    17    40 1   
    38    18    19 1   
    39    18    41 1   
    40    18    42 1   
    41    19    43 1   
    42    19    44 1   
    43    20    45 1   
    44    20    46 1   
    45    21    22 1   
    46    21    25 1   
    47    22    23 1   
    48    23    47 1   
    49    24    49 1   
    50    25    26 2   
    51    25    27 1   
    52    27    50 1   
    53    28    51 1   
    54    48    52 1   
@<TRIPOS>SUBSTRUCTURE
     1 FKU         1 TEMP              0 ****  ****    0 ROOT
