@<TRIPOS>MOLECULE
FKV
   40    42     1     0     0
SMALL
No Charge or Current Charge


@<TRIPOS>ATOM
      1 C2           2.5260     1.0260     0.3690 cc         1 FKV       0.334300
      2 C3          -0.4800     0.0530     2.0320 c3         1 FKV       0.150600
      3 C5          -2.2220     0.4360     0.2020 ca         1 FKV      -0.100500
      4 C7          -4.0820    -1.1140    -0.1470 ca         1 FKV      -0.184300
      5 C9          -2.4480    -1.5150     1.6290 ca         1 FKV      -0.100500
      6 C10         -5.3340    -1.5370    -0.9240 c3         1 FKV       0.357300
      7 C11         -0.7700     1.2690     2.9440 c3         1 FKV      -0.088100
      8 C12          3.7610     1.8640     0.2110 c3         1 FKV      -0.180700
      9 C13          4.9860     1.2920     0.9470 c3         1 FKV       0.308000
     10 C15          0.8720    -2.1480    -1.7680 c          1 FKV       0.633000
     11 C14          2.7690    -0.5750    -1.6960 c          1 FKV       0.641600
     12 C1           2.1470    -0.0190    -0.4890 cc         1 FKV      -0.328600
     13 N2           2.0460    -1.6130    -2.2230 ns         1 FKV      -0.477500
     14 O            0.3110    -3.0720    -2.3220 o          1 FKV      -0.540000
     15 N3           0.3780    -1.5580    -0.6390 ns         1 FKV      -0.503600
     16 C            1.0000    -0.5130    -0.0070 cd         1 FKV       0.072600
     17 N1           0.6870     0.2410     1.1280 na         1 FKV       0.107800
     18 N            1.6670     1.2120     1.3600 nd         1 FKV      -0.499800
     19 F5           4.7760     1.2470     2.2820 f          1 FKV      -0.112000
     20 F4           5.2730     0.0390     0.5270 f          1 FKV      -0.112000
     21 F3           6.0740     2.0630     0.7250 f          1 FKV      -0.112000
     22 C4          -1.7480    -0.3470     1.2730 ca         1 FKV      -0.103300
     23 C8          -3.6030    -1.8980     0.9250 ca         1 FKV      -0.057500
     24 F2          -6.0090    -0.4780    -1.4280 f          1 FKV      -0.110333
     25 F1          -5.0170    -2.3360    -1.9670 f          1 FKV      -0.110333
     26 F           -6.2110    -2.2210    -0.1540 f          1 FKV      -0.110333
     27 C6          -3.3760     0.0550    -0.5040 ca         1 FKV      -0.057500
     28 H1          -0.2110    -0.7800     2.6940 h1         1 FKV       0.063700
     29 H2          -1.6930     1.3400    -0.0920 ha         1 FKV       0.128500
     30 H3          -2.0990    -2.1350     2.4530 ha         1 FKV       0.128500
     31 H4          -1.6360     1.0660     3.5850 hc         1 FKV       0.060700
     32 H5           0.0860     1.4850     3.5940 hc         1 FKV       0.060700
     33 H6          -0.9880     2.1620     2.3470 hc         1 FKV       0.060700
     34 H7           4.0020     1.9920    -0.8480 hc         1 FKV       0.101200
     35 H8           3.5650     2.8710     0.5950 hc         1 FKV       0.101200
     36 H9           2.4270    -2.0330    -3.0550 hn         1 FKV       0.348500
     37 H10         -0.5030    -1.9350    -0.3060 hn         1 FKV       0.468000
     38 H11         -4.1210    -2.8100     1.2160 ha         1 FKV       0.137000
     39 H12         -3.7150     0.6720    -1.3340 ha         1 FKV       0.137000
     40 O1           3.8050    -0.1880    -2.2070 o          1 FKV      -0.511000
@<TRIPOS>BOND
     1     1     8 1   
     2     1    12 1   
     3     1    18 2   
     4     2     7 1   
     5     2    17 1   
     6     2    22 1   
     7     2    28 1   
     8     3    22 ar  
     9     3    27 ar  
    10     3    29 1   
    11     4     6 1   
    12     4    23 ar  
    13     4    27 ar  
    14     5    22 ar  
    15     5    23 ar  
    16     5    30 1   
    17     6    24 1   
    18     6    25 1   
    19     6    26 1   
    20     7    31 1   
    21     7    32 1   
    22     7    33 1   
    23     8     9 1   
    24     8    34 1   
    25     8    35 1   
    26     9    19 1   
    27     9    20 1   
    28     9    21 1   
    29    10    13 1   
    30    10    14 2   
    31    10    15 1   
    32    11    12 1   
    33    11    13 1   
    34    11    40 2   
    35    12    16 2   
    36    13    36 1   
    37    15    16 1   
    38    15    37 1   
    39    16    17 1   
    40    17    18 1   
    41    23    38 1   
    42    27    39 1   
@<TRIPOS>SUBSTRUCTURE
     1 FKV         1 TEMP              0 ****  ****    0 ROOT
