@<TRIPOS>MOLECULE
FKV
   40    42     1     0     0
SMALL
abcg2


@<TRIPOS>ATOM
      1 C2           2.1810     0.9880     0.0890 cc         1 FKV       0.334300
      2 C3          -0.4150    -0.4760     1.9780 c3         1 FKV       0.150600
      3 C5          -2.0390     0.5550     0.3430 ca         1 FKV      -0.100500
      4 C7          -4.1120    -0.5300    -0.2100 ca         1 FKV      -0.184300
      5 C9          -2.5820    -1.5660     1.3210 ca         1 FKV      -0.100500
      6 C10         -5.3860    -0.5250    -0.9930 c3         1 FKV       0.357300
      7 C11         -0.4790     0.5080     3.1350 c3         1 FKV      -0.088100
      8 C12          3.0240     2.1690    -0.2460 c3         1 FKV      -0.180700
      9 C13          4.3370     2.1470     0.4980 c3         1 FKV       0.308000
     10 C15          1.5930    -2.9810    -1.0650 c          1 FKV       0.633000
     11 C14          2.9430    -0.9310    -1.5560 c          1 FKV       0.641600
     12 C1           2.2120    -0.2980    -0.4950 cc         1 FKV      -0.328600
     13 N2           2.5560    -2.2580    -1.7350 ns         1 FKV      -0.477500
     14 O            1.3470    -4.1370    -1.3270 o          1 FKV      -0.540000
     15 N3           0.9260    -2.2940    -0.0760 ns         1 FKV      -0.503600
     16 C            1.2430    -1.0020     0.1870 cd         1 FKV       0.072600
     17 N1           0.7120    -0.1850     1.0990 na         1 FKV       0.107800
     18 N            1.2750     1.0400     1.0330 nd         1 FKV      -0.499800
     19 F5           4.1630     2.2210     1.8250 f          1 FKV      -0.112000
     20 F4           5.0350     1.0290     0.2640 f          1 FKV      -0.112000
     21 F3           5.1160     3.1790     0.1460 f          1 FKV      -0.112000
     22 C4          -1.7040    -0.5010     1.1870 ca         1 FKV      -0.103300
     23 C8          -3.7850    -1.5850     0.6270 ca         1 FKV      -0.057500
     24 F2          -6.0320     0.6450    -0.8820 f          1 FKV      -0.110333
     25 F1          -5.1620    -0.7120    -2.3030 f          1 FKV      -0.110333
     26 F           -6.2360    -1.4790    -0.6040 f          1 FKV      -0.110333
     27 C6          -3.2330     0.5420    -0.3540 ca         1 FKV      -0.057500
     28 H1          -0.2350    -1.4720     2.3930 h1         1 FKV       0.063700
     29 H2          -1.3690     1.3970     0.2280 ha         1 FKV       0.128500
     30 H3          -2.3360    -2.3940     1.9760 ha         1 FKV       0.128500
     31 H4          -1.2920     0.2130     3.7960 hc         1 FKV       0.060700
     32 H5           0.4470     0.4990     3.7090 hc         1 FKV       0.060700
     33 H6          -0.6690     1.5220     2.7900 hc         1 FKV       0.060700
     34 H7           3.2330     2.1930    -1.3160 hc         1 FKV       0.101200
     35 H8           2.4990     3.0900     0.0130 hc         1 FKV       0.101200
     36 H9           3.0350    -2.7710    -2.4650 hn         1 FKV       0.348500
     37 H10          0.2080    -2.7960     0.4270 hn         1 FKV       0.468000
     38 H11         -4.4500    -2.4290     0.7500 ha         1 FKV       0.137000
     39 H12         -3.4720     1.3730    -1.0050 ha         1 FKV       0.137000
     40 O1           3.7980    -0.4290    -2.2560 o          1 FKV      -0.511000
@<TRIPOS>BOND
     1     1     8 1   
     2     1    12 1   
     3     1    18 2   
     4     2     7 1   
     5     2    17 1   
     6     2    22 1   
     7     2    28 1   
     8     3    22 ar  
     9     3    27 ar  
    10     3    29 1   
    11     4     6 1   
    12     4    23 ar  
    13     4    27 ar  
    14     5    22 ar  
    15     5    23 ar  
    16     5    30 1   
    17     6    24 1   
    18     6    25 1   
    19     6    26 1   
    20     7    31 1   
    21     7    32 1   
    22     7    33 1   
    23     8     9 1   
    24     8    34 1   
    25     8    35 1   
    26     9    19 1   
    27     9    20 1   
    28     9    21 1   
    29    10    13 1   
    30    10    14 2   
    31    10    15 1   
    32    11    12 1   
    33    11    13 1   
    34    11    40 2   
    35    12    16 2   
    36    13    36 1   
    37    15    16 1   
    38    15    37 1   
    39    16    17 1   
    40    17    18 1   
    41    23    38 1   
    42    27    39 1   
@<TRIPOS>SUBSTRUCTURE
     1 FKV         1 TEMP              0 ****  ****    0 ROOT
