@<TRIPOS>MOLECULE
FKW
   39    41     1     0     0
SMALL
abcg2


@<TRIPOS>ATOM
      1 C1           5.0140     1.5380     1.9840 ca         1 FKW      -0.134000
      2 N1           6.3540    -0.2960    -1.4290 na         1 FKW      -0.218700
      3 C2           4.3050     0.5350     1.3530 ca         1 FKW      -0.063000
      4 N2           0.7990    -1.4160    -0.1290 ns         1 FKW      -0.284900
      5 C3           4.8350    -0.0390     0.1920 ca         1 FKW      -0.087800
      6 N3          -0.3810    -0.8190    -0.3070 n2         1 FKW      -0.384300
      7 C4           4.3880    -1.0710    -0.6930 cc         1 FKW      -0.148400
      8 N4          -6.5030     1.1010    -0.1760 no         1 FKW       0.706200
      9 C5           5.3460    -1.1880    -1.6590 cd         1 FKW      -0.133100
     10 C6           6.0740     0.4220    -0.3030 ca         1 FKW      -0.044200
     11 C7           6.7930     1.4350     0.3310 ca         1 FKW      -0.124000
     12 C8           6.2460     1.9830     1.4760 ca         1 FKW      -0.091000
     13 C9           3.1290    -1.8530    -0.5680 c3         1 FKW      -0.074200
     14 C10          1.8960    -1.0140    -0.8390 c          1 FKW       0.616100
     15 C11         -1.3720    -1.2400     0.3700 ce         1 FKW       0.335800
     16 C12         -2.6840    -0.6210     0.2130 ca         1 FKW      -0.021900
     17 C13         -2.9030     0.4390    -0.6830 ca         1 FKW      -0.137000
     18 C14         -4.1530     0.9850    -0.7930 ca         1 FKW      -0.011000
     19 C15         -5.2150     0.4950    -0.0220 ca         1 FKW      -0.299200
     20 C16         -5.0170    -0.5670     0.8810 ca         1 FKW       0.240100
     21 C17         -3.7310    -1.1050     0.9760 ca         1 FKW      -0.177000
     22 O1           1.8700    -0.0920    -1.6230 o          1 FKW      -0.516100
     23 O2          -5.9520    -1.0990     1.6530 oh         1 FKW      -0.523100
     24 O3          -6.6350     2.0210    -0.9430 o          1 FKW      -0.413000
     25 O4          -7.4350     0.6570     0.4830 o          1 FKW      -0.413000
     26 H1           4.6180     1.9920     2.8840 ha         1 FKW       0.112000
     27 H5           7.1790    -0.2030    -1.9970 hn         1 FKW       0.353000
     28 H2           3.3560     0.1980     1.7530 ha         1 FKW       0.109000
     29 H21          0.8800    -2.1890     0.5230 hn         1 FKW       0.305500
     30 H4           5.3830    -1.8540    -2.5070 h4         1 FKW       0.213000
     31 H6           7.7430     1.7790    -0.0560 ha         1 FKW       0.114000
     32 H7           6.7800     2.7700     1.9940 ha         1 FKW       0.111000
     33 H91          3.1200    -2.6720    -1.2950 hc         1 FKW       0.061700
     34 H92          3.0590    -2.3270     0.4160 hc         1 FKW       0.061700
     35 H112        -1.2910    -2.0640     1.0810 h4         1 FKW      -0.006200
     36 H131        -2.0910     0.8210    -1.2850 ha         1 FKW       0.155000
     37 H142        -4.3200     1.7990    -1.4820 ha         1 FKW       0.151000
     38 H171        -3.5730    -1.9230     1.6690 ha         1 FKW       0.138000
     39 H3          -6.7980    -0.6440     1.4850 ho         1 FKW       0.520000
@<TRIPOS>BOND
     1     1     3 ar  
     2     1    12 ar  
     3     1    26 1   
     4     2     9 1   
     5     2    10 1   
     6     2    27 1   
     7     3     5 ar  
     8     3    28 1   
     9     4     6 1   
    10     4    14 1   
    11     4    29 1   
    12     5     7 1   
    13     5    10 ar  
    14     6    15 2   
    15     7     9 2   
    16     7    13 1   
    17     8    19 1   
    18     8    24 1   
    19     8    25 1   
    20     9    30 1   
    21    10    11 ar  
    22    11    12 ar  
    23    11    31 1   
    24    12    32 1   
    25    13    14 1   
    26    13    33 1   
    27    13    34 1   
    28    14    22 2   
    29    15    16 1   
    30    15    35 1   
    31    16    17 ar  
    32    16    21 ar  
    33    17    18 ar  
    34    17    36 1   
    35    18    19 ar  
    36    18    37 1   
    37    19    20 ar  
    38    20    21 ar  
    39    20    23 1   
    40    21    38 1   
    41    23    39 1   
@<TRIPOS>SUBSTRUCTURE
     1 FKW         1 TEMP              0 ****  ****    0 ROOT
