@<TRIPOS>MOLECULE
FKW
   39    41     1     0     0
SMALL
No Charge or Current Charge


@<TRIPOS>ATOM
      1 C1           5.2040     1.5630     1.9010 ca         1 FKW      -0.134000
      2 N1           6.1000    -0.3220    -1.6930 na         1 FKW      -0.218700
      3 C2           4.4790     0.4530     1.4200 ca         1 FKW      -0.063000
      4 N2           1.0610    -0.9550     0.5560 ns         1 FKW      -0.284900
      5 C3           4.8680    -0.1050     0.1920 ca         1 FKW      -0.087800
      6 N3          -0.1770    -0.3480     0.4250 n2         1 FKW      -0.384300
      7 C4           4.3290    -1.2170    -0.5390 cc         1 FKW      -0.148400
      8 N4          -6.6140     1.1570    -0.1820 no         1 FKW       0.706200
      9 C5           5.1040    -1.3280    -1.6910 cd         1 FKW      -0.133100
     10 C6           5.9160     0.3980    -0.5270 ca         1 FKW      -0.044200
     11 C7           6.6550     1.4990    -0.0730 ca         1 FKW      -0.124000
     12 C8           6.2890     2.0850     1.1570 ca         1 FKW      -0.091000
     13 C9           3.1530    -2.0770    -0.1440 c3         1 FKW      -0.074200
     14 C10          1.7930    -1.4650    -0.5140 c          1 FKW       0.616100
     15 C11         -1.2480    -1.0820     0.4250 ce         1 FKW       0.335800
     16 C12         -2.6170    -0.4970     0.2690 ca         1 FKW      -0.021900
     17 C13         -2.8220     0.8880     0.1100 ca         1 FKW      -0.137000
     18 C14         -4.1180     1.4100    -0.0340 ca         1 FKW      -0.011000
     19 C15         -5.2480     0.5560    -0.0240 ca         1 FKW      -0.299200
     20 C16         -5.0390    -0.8370     0.1350 ca         1 FKW       0.240100
     21 C17         -3.7400    -1.3450     0.2780 ca         1 FKW      -0.177000
     22 O1           1.3850    -1.4350    -1.6710 o          1 FKW      -0.516100
     23 O2          -6.0680    -1.7300     0.1560 oh         1 FKW      -0.523100
     24 O3          -6.7020     2.3830    -0.3150 o          1 FKW      -0.413000
     25 O4          -7.5950     0.4010    -0.1720 o          1 FKW      -0.413000
     26 H1           4.9290     2.0190     2.8490 ha         1 FKW       0.112000
     27 H5           6.8060    -0.1610    -2.4050 hn         1 FKW       0.353000
     28 H2           3.6460     0.0450     1.9870 ha         1 FKW       0.109000
     29 H21          1.4990    -1.0380     1.4690 hn         1 FKW       0.305500
     30 H4           5.0160    -2.0430    -2.5050 h4         1 FKW       0.213000
     31 H6           7.4870     1.8930    -0.6520 ha         1 FKW       0.114000
     32 H7           6.8430     2.9410     1.5350 ha         1 FKW       0.111000
     33 H91          3.2400    -3.0420    -0.6570 hc         1 FKW       0.061700
     34 H92          3.1970    -2.2500     0.9380 hc         1 FKW       0.061700
     35 H112        -1.1900    -2.1670     0.5380 h4         1 FKW      -0.006200
     36 H131        -1.9750     1.5710     0.0980 ha         1 FKW       0.155000
     37 H142        -4.2290     2.4870    -0.1540 ha         1 FKW       0.151000
     38 H171        -3.6040    -2.4170     0.3990 ha         1 FKW       0.138000
     39 H3          -6.9010    -1.2150     0.0440 ho         1 FKW       0.520000
@<TRIPOS>BOND
     1     1     3 ar  
     2     1    12 ar  
     3     1    26 1   
     4     2     9 1   
     5     2    10 1   
     6     2    27 1   
     7     3     5 ar  
     8     3    28 1   
     9     4     6 1   
    10     4    14 1   
    11     4    29 1   
    12     5     7 1   
    13     5    10 ar  
    14     6    15 2   
    15     7     9 2   
    16     7    13 1   
    17     8    19 1   
    18     8    24 1   
    19     8    25 1   
    20     9    30 1   
    21    10    11 ar  
    22    11    12 ar  
    23    11    31 1   
    24    12    32 1   
    25    13    14 1   
    26    13    33 1   
    27    13    34 1   
    28    14    22 2   
    29    15    16 1   
    30    15    35 1   
    31    16    17 ar  
    32    16    21 ar  
    33    17    18 ar  
    34    17    36 1   
    35    18    19 ar  
    36    18    37 1   
    37    19    20 ar  
    38    20    21 ar  
    39    20    23 1   
    40    21    38 1   
    41    23    39 1   
@<TRIPOS>SUBSTRUCTURE
     1 FKW         1 TEMP              0 ****  ****    0 ROOT
