@<TRIPOS>MOLECULE
FKX
   30    31     1     0     0
SMALL
abcg2


@<TRIPOS>ATOM
      1 O12        -21.1090     2.8670    12.5800 o          1 FKX      -0.616000
      2 N13        -20.0490     2.0460    14.4800 n          1 FKX      -0.292000
      3 C14        -19.8670     0.6660    14.0950 c3         1 FKX       0.127000
      4 C15        -18.4260     0.3080    13.7310 c3         1 FKX      -0.086700
      5 C16        -18.3430    -1.1860    13.4430 c3         1 FKX      -0.083100
      6 C01        -19.6510     2.5950    15.6850 ca         1 FKX      -0.032400
      7 C02        -19.0300     2.0370    16.7830 ca         1 FKX      -0.081000
      8 C03        -18.7620     2.8550    17.8840 ca         1 FKX      -0.133600
      9 C04        -18.0780     2.2660    19.1140 c          1 FKX       0.714600
     10 C07        -19.1220     4.2030    17.8430 ca         1 FKX      -0.081000
     11 C08        -19.7470     4.7710    16.7350 ca         1 FKX      -0.148000
     12 C09        -20.0070     3.9460    15.6570 ca         1 FKX      -0.027400
     13 C11        -20.6420     3.0100    13.6960 c          1 FKX       0.586000
     14 C17        -17.9190     1.1270    12.5510 c3         1 FKX      -0.083100
     15 N10        -20.6040     4.1660    14.4370 ns         1 FKX      -0.506600
     16 O05        -17.7460     1.0660    19.0410 o          1 FKX      -0.718500
     17 O06        -17.9120     3.0300    20.0840 o          1 FKX      -0.718500
     18 H1         -20.5250     0.4680    13.2470 h1         1 FKX       0.055200
     19 H2         -20.2110     0.0350    14.9190 h1         1 FKX       0.055200
     20 H3         -17.7910     0.5200    14.5970 hc         1 FKX       0.071700
     21 H4         -18.6740    -1.7790    14.2970 hc         1 FKX       0.030700
     22 H5         -18.9670    -1.4560    12.5870 hc         1 FKX       0.030700
     23 H6         -17.3200    -1.4820    13.2110 hc         1 FKX       0.030700
     24 H7         -18.7550     0.9910    16.8040 ha         1 FKX       0.138000
     25 H8         -18.9090     4.8270    18.7000 ha         1 FKX       0.132000
     26 H9         -20.0190     5.8180    16.7210 ha         1 FKX       0.096000
     27 H10        -17.9310     2.1980    12.7580 hc         1 FKX       0.030700
     28 H11        -16.8900     0.8550    12.3100 hc         1 FKX       0.030700
     29 H12        -18.5270     0.9500    11.6610 hc         1 FKX       0.030700
     30 H13        -20.9800     5.0410    14.1080 hn         1 FKX       0.449000
@<TRIPOS>BOND
     1     1    13 2   
     2     2     3 1   
     3     2     6 1   
     4     2    13 1   
     5     3     4 1   
     6     3    18 1   
     7     3    19 1   
     8     4     5 1   
     9     4    14 1   
    10     4    20 1   
    11     5    21 1   
    12     5    22 1   
    13     5    23 1   
    14     6     7 ar  
    15     6    12 ar  
    16     7     8 ar  
    17     7    24 1   
    18     8     9 1   
    19     8    10 ar  
    20     9    16 1   
    21     9    17 1   
    22    10    11 ar  
    23    10    25 1   
    24    11    12 ar  
    25    11    26 1   
    26    12    15 1   
    27    13    15 1   
    28    14    27 1   
    29    14    28 1   
    30    14    29 1   
    31    15    30 1   
@<TRIPOS>SUBSTRUCTURE
     1 FKX         1 TEMP              0 ****  ****    0 ROOT
