@<TRIPOS>MOLECULE
FKX
   30    31     1     0     0
SMALL
No Charge or Current Charge


@<TRIPOS>ATOM
      1 O12        -21.2960     2.8550    12.6200 o          1 FKX      -0.616000
      2 N13        -20.1680     1.9860    14.5180 n          1 FKX      -0.292000
      3 C14        -19.9250     0.6010    14.0740 c3         1 FKX       0.127000
      4 C15        -18.4500     0.3070    13.6930 c3         1 FKX      -0.086700
      5 C16        -18.2460    -1.1930    13.3850 c3         1 FKX      -0.083100
      6 C01        -19.6020     2.5790    15.6890 ca         1 FKX      -0.032400
      7 C02        -19.0950     1.9990    16.8590 ca         1 FKX      -0.081000
      8 C03        -18.7570     2.8550    17.9440 ca         1 FKX      -0.133600
      9 C04        -18.1590     2.2790    19.2180 c          1 FKX       0.714600
     10 C07        -19.0060     4.2570    17.8300 ca         1 FKX      -0.081000
     11 C08        -19.6030     4.8040    16.6720 ca         1 FKX      -0.148000
     12 C09        -19.9020     3.9260    15.6320 ca         1 FKX      -0.027400
     13 C11        -20.7590     2.9730    13.7090 c          1 FKX       0.586000
     14 C17        -17.9560     1.1890    12.5220 c3         1 FKX      -0.083100
     15 N10        -20.5750     4.1230    14.4230 ns         1 FKX      -0.506600
     16 O05        -17.9660     1.0720    19.2800 o          1 FKX      -0.718500
     17 O06        -17.8890     3.0410    20.1360 o          1 FKX      -0.718500
     18 H1         -20.5720     0.3800    13.2150 h1         1 FKX       0.055200
     19 H2         -20.2260    -0.0710    14.8880 h1         1 FKX       0.055200
     20 H3         -17.8290     0.5430    14.5660 hc         1 FKX       0.071700
     21 H4         -18.5480    -1.8090    14.2410 hc         1 FKX       0.030700
     22 H5         -18.8420    -1.4980    12.5150 hc         1 FKX       0.030700
     23 H6         -17.1920    -1.4060    13.1710 hc         1 FKX       0.030700
     24 H7         -18.9550     0.9230    16.9220 ha         1 FKX       0.138000
     25 H8         -18.7630     4.9230    18.6560 ha         1 FKX       0.132000
     26 H9         -19.8400     5.8630    16.6060 ha         1 FKX       0.096000
     27 H10        -18.0060     2.2530    12.7830 hc         1 FKX       0.030700
     28 H11        -16.9130     0.9560    12.2750 hc         1 FKX       0.030700
     29 H12        -18.5660     1.0260    11.6250 hc         1 FKX       0.030700
     30 H13        -20.9050     5.0230    14.0920 hn         1 FKX       0.449000
@<TRIPOS>BOND
     1     1    13 2   
     2     2     3 1   
     3     2     6 1   
     4     2    13 1   
     5     3     4 1   
     6     3    18 1   
     7     3    19 1   
     8     4     5 1   
     9     4    14 1   
    10     4    20 1   
    11     5    21 1   
    12     5    22 1   
    13     5    23 1   
    14     6     7 ar  
    15     6    12 ar  
    16     7     8 ar  
    17     7    24 1   
    18     8     9 1   
    19     8    10 ar  
    20     9    16 1   
    21     9    17 1   
    22    10    11 ar  
    23    10    25 1   
    24    11    12 ar  
    25    11    26 1   
    26    12    15 1   
    27    13    15 1   
    28    14    27 1   
    29    14    28 1   
    30    14    29 1   
    31    15    30 1   
@<TRIPOS>SUBSTRUCTURE
     1 FKX         1 TEMP              0 ****  ****    0 ROOT
