@<TRIPOS>MOLECULE
FKY
   60    63     1     0     0
SMALL
abcg2


@<TRIPOS>ATOM
      1 C5          -7.9780     2.2290     0.2100 cc         1 FKY      -0.215000
      2 C6         -10.1870     3.3270     0.6600 c3         1 FKY       0.056900
      3 C7          -6.1230     0.4720     0.2420 ca         1 FKY      -0.190500
      4 C8          -5.7360    -0.7960     0.6840 ca         1 FKY      -0.003000
      5 C10         -3.6440    -0.5020    -0.4090 ca         1 FKY       0.623300
      6 C15         -0.5730    -1.1710    -2.1310 c6         1 FKY       0.173300
      7 C20          2.4230     0.1570    -1.5440 c          1 FKY       0.609100
      8 C22          2.9890     1.0260    -0.4270 c3         1 FKY      -0.114100
      9 C24          4.3710    -0.3260     1.1700 ca         1 FKY      -0.085000
     10 C26          6.7430    -0.4650     0.9630 ca         1 FKY       0.092100
     11 C28          5.4910     0.8430    -0.5910 ca         1 FKY      -0.085000
     12 C1          -7.4370     1.0180     0.5630 cd         1 FKY       0.300500
     13 N2          -8.3390     0.3130     1.3100 nd         1 FKY      -0.674000
     14 C3          -9.3940     1.0790     1.4040 cc         1 FKY       0.399400
     15 N4          -9.2270     2.2490     0.7550 na         1 FKY      -0.161500
     16 C9          -4.4970    -1.3100     0.3590 ca         1 FKY      -0.229600
     17 N11         -3.9870     0.6970    -0.8220 nb         1 FKY      -0.772000
     18 C12         -5.1920     1.1660    -0.5170 ca         1 FKY       0.395900
     19 O13         -2.4330    -0.9840    -0.6910 os         1 FKY      -0.432300
     20 C14         -1.5230    -0.2020    -1.4530 c6         1 FKY       0.154300
     21 C16          0.4920    -0.4120    -2.9020 c6         1 FKY       0.060000
     22 N17          1.1950     0.4890    -2.0110 n          1 FKY      -0.406800
     23 C18          0.3190     1.4790    -1.4100 c6         1 FKY       0.097000
     24 C19         -0.7720     0.8020    -0.5850 c6         1 FKY      -0.126400
     25 O21          3.0680    -0.7710    -2.0020 o          1 FKY      -0.572100
     26 C23          4.3080     0.5110     0.0610 ca         1 FKY      -0.054300
     27 C25          5.5840    -0.8190     1.6300 ca         1 FKY      -0.097500
     28 C27          6.7130     0.3610    -0.1470 ca         1 FKY      -0.097500
     29 C30          8.6630    -0.3050     2.2870 c3         1 FKY       0.513000
     30 F31          9.0140     0.9070     1.8530 f          1 FKY      -0.111000
     31 F32          8.0000    -0.1250     3.4320 f          1 FKY      -0.111000
     32 F33          9.7660    -0.9880     2.5480 f          1 FKY      -0.111000
     33 F34          0.0530    -1.9480    -1.1590 f          1 FKY      -0.246000
     34 C35         -4.1160    -2.7040     0.7500 c          1 FKY       0.635700
     35 N36         -4.2830    -2.9800     2.0510 nt         1 FKY      -0.607000
     36 O37         -3.7200    -3.5160    -0.0700 o          1 FKY      -0.579100
     37 H1          -7.5970     3.0570    -0.3640 h4         1 FKY       0.158000
     38 H2         -10.4060     3.5490    -0.3820 h1         1 FKY       0.056367
     39 H3         -11.1070     3.0260     1.1540 h1         1 FKY       0.056367
     40 H4          -9.8060     4.2240     1.1440 h1         1 FKY       0.056367
     41 H5          -6.4270    -1.3850     1.2740 ha         1 FKY       0.147000
     42 H6          -1.1190    -1.8420    -2.8000 h1         1 FKY       0.079700
     43 H7           3.0920     2.0530    -0.7890 hc         1 FKY       0.067200
     44 H8           2.2790     1.0680     0.4030 hc         1 FKY       0.067200
     45 H9           3.4620    -0.6000     1.6910 ha         1 FKY       0.120500
     46 H10          5.4660     1.4920    -1.4580 ha         1 FKY       0.120500
     47 H11        -10.3060     0.8390     1.9280 h5         1 FKY       0.057100
     48 H12         -5.4180     2.1550    -0.9000 h4         1 FKY       0.015100
     49 H13         -2.0570     0.3340    -2.2450 h1         1 FKY       0.071700
     50 H14          1.1910    -1.1000    -3.3700 h1         1 FKY       0.077700
     51 H15          0.0150     0.1620    -3.7000 h1         1 FKY       0.077700
     52 H16          0.8780     2.1820    -0.8000 h1         1 FKY       0.054700
     53 H17         -0.1310     2.0680    -2.2160 h1         1 FKY       0.054700
     54 H18         -1.4600     1.5580    -0.2050 hc         1 FKY       0.069200
     55 H19         -0.3270     0.2970     0.2760 hc         1 FKY       0.069200
     56 H20          5.6180    -1.4800     2.4850 ha         1 FKY       0.134500
     57 H21          7.6260     0.6150    -0.6700 ha         1 FKY       0.134500
     58 H22         -4.0910    -3.9040     2.4030 hn         1 FKY       0.315500
     59 H23         -4.5330    -2.2720     2.7190 hn         1 FKY       0.315500
     60 O29          7.9600    -0.9960     1.3830 os         1 FKY      -0.401100
@<TRIPOS>BOND
     1     1    12 2   
     2     1    15 1   
     3     1    37 1   
     4     2    15 1   
     5     2    38 1   
     6     2    39 1   
     7     2    40 1   
     8     3     4 ar  
     9     3    12 1   
    10     3    18 ar  
    11     4    16 ar  
    12     4    41 1   
    13     5    16 ar  
    14     5    17 ar  
    15     5    19 1   
    16     6    20 1   
    17     6    21 1   
    18     6    33 1   
    19     6    42 1   
    20     7     8 1   
    21     7    22 1   
    22     7    25 2   
    23     8    26 1   
    24     8    43 1   
    25     8    44 1   
    26     9    26 ar  
    27     9    27 ar  
    28     9    45 1   
    29    10    27 ar  
    30    10    28 ar  
    31    10    60 1   
    32    11    26 ar  
    33    11    28 ar  
    34    11    46 1   
    35    12    13 1   
    36    13    14 2   
    37    14    15 1   
    38    14    47 1   
    39    16    34 1   
    40    17    18 ar  
    41    18    48 1   
    42    19    20 1   
    43    20    24 1   
    44    20    49 1   
    45    21    22 1   
    46    21    50 1   
    47    21    51 1   
    48    22    23 1   
    49    23    24 1   
    50    23    52 1   
    51    23    53 1   
    52    24    54 1   
    53    24    55 1   
    54    27    56 1   
    55    28    57 1   
    56    29    30 1   
    57    29    31 1   
    58    29    32 1   
    59    29    60 1   
    60    34    35 1   
    61    34    36 2   
    62    35    58 1   
    63    35    59 1   
@<TRIPOS>SUBSTRUCTURE
     1 FKY         1 TEMP              0 ****  ****    0 ROOT
