@<TRIPOS>MOLECULE
FKY
   60    63     1     0     0
SMALL
No Charge or Current Charge


@<TRIPOS>ATOM
      1 C5          -7.9710     2.4080     0.1510 cc         1 FKY      -0.215000
      2 C6         -10.0230     3.8020     0.7040 c3         1 FKY       0.056900
      3 C7          -6.3560     0.4450     0.0600 ca         1 FKY      -0.190500
      4 C8          -6.0880    -0.8830     0.4370 ca         1 FKY      -0.003000
      5 C10         -3.9780    -0.7260    -0.7470 ca         1 FKY       0.623300
      6 C15         -0.5980    -1.3350    -2.3060 c6         1 FKY       0.173300
      7 C20          2.4630    -0.0990    -0.9470 c          1 FKY       0.609100
      8 C22          2.9890     0.7160     0.2520 c3         1 FKY      -0.114100
      9 C24          4.7600    -0.5260     1.5930 ca         1 FKY      -0.085000
     10 C26          7.1400    -0.0520     1.3230 ca         1 FKY       0.092100
     11 C28          5.4800     1.1690     0.0090 ca         1 FKY      -0.085000
     12 C1          -7.5980     1.1240     0.4580 cd         1 FKY       0.300500
     13 N2          -8.5650     0.5050     1.2230 nd         1 FKY      -0.674000
     14 C3          -9.5250     1.4040     1.3830 cc         1 FKY       0.399400
     15 N4          -9.2040     2.5830     0.7420 na         1 FKY      -0.161500
     16 C9          -4.8810    -1.4900     0.0220 ca         1 FKY      -0.229600
     17 N11         -4.2460     0.5460    -1.1180 nb         1 FKY      -0.772000
     18 C12         -5.4020     1.1110    -0.7210 ca         1 FKY       0.395900
     19 O13         -2.7810    -1.2820    -1.1480 os         1 FKY      -0.432300
     20 C14         -1.6690    -0.4610    -1.5880 c6         1 FKY       0.154300
     21 C16          0.6460    -0.4920    -2.6870 c6         1 FKY       0.060000
     22 N17          1.2040     0.2390    -1.5090 n          1 FKY      -0.406800
     23 C18          0.2000     1.1200    -0.8480 c6         1 FKY       0.097000
     24 C19         -1.0330     0.3050    -0.3930 c6         1 FKY      -0.126400
     25 O21          3.1320    -1.0060    -1.4260 o          1 FKY      -0.572100
     26 C23          4.4430     0.4460     0.6260 ca         1 FKY      -0.054300
     27 C25          6.1000    -0.7710     1.9370 ca         1 FKY      -0.097500
     28 C27          6.8230     0.9260     0.3520 ca         1 FKY      -0.097500
     29 C30          9.6080     0.2970     1.1820 c3         1 FKY       0.513000
     30 F31          9.7320     0.1090    -0.1520 f          1 FKY      -0.111000
     31 F32          9.6080     1.6290     1.4180 f          1 FKY      -0.111000
     32 F33         10.7260    -0.2020     1.7540 f          1 FKY      -0.111000
     33 F34         -0.1800    -2.3740    -1.4410 f          1 FKY      -0.246000
     34 C35         -4.5750    -2.9130     0.3940 c          1 FKY       0.635700
     35 N36         -5.2280    -3.4290     1.4590 nt         1 FKY      -0.607000
     36 O37         -3.8290    -3.6440    -0.2340 o          1 FKY      -0.579100
     37 H1          -7.4740     3.1810    -0.4210 h4         1 FKY       0.158000
     38 H2          -9.8580     4.3310    -0.2430 h1         1 FKY       0.056367
     39 H3         -11.0860     3.5400     0.7890 h1         1 FKY       0.056367
     40 H4          -9.7440     4.4580     1.5380 h1         1 FKY       0.056367
     41 H5          -6.8230    -1.4340     1.0210 ha         1 FKY       0.147000
     42 H6          -1.0280    -1.8030    -3.2020 h1         1 FKY       0.079700
     43 H7           2.8120     1.7770     0.0490 hc         1 FKY       0.067200
     44 H8           2.3070     0.5460     1.0930 hc         1 FKY       0.067200
     45 H9           3.9680    -1.0940     2.0770 ha         1 FKY       0.120500
     46 H10          5.2470     1.9230    -0.7400 ha         1 FKY       0.120500
     47 H11        -10.4500     1.2720     1.9330 h5         1 FKY       0.057100
     48 H12         -5.5580     2.1380    -1.0470 h4         1 FKY       0.015100
     49 H13         -2.0330     0.2670    -2.3290 h1         1 FKY       0.071700
     50 H14          1.4010    -1.1480    -3.1420 h1         1 FKY       0.077700
     51 H15          0.3610     0.2400    -3.4560 h1         1 FKY       0.077700
     52 H16          0.6180     1.6470     0.0180 h1         1 FKY       0.054700
     53 H17         -0.1180     1.8920    -1.5640 h1         1 FKY       0.054700
     54 H18         -1.7660     0.9850     0.0600 hc         1 FKY       0.069200
     55 H19         -0.7360    -0.4040     0.3910 hc         1 FKY       0.069200
     56 H20          6.3370    -1.5240     2.6840 ha         1 FKY       0.134500
     57 H21          7.5930     1.5050    -0.1470 ha         1 FKY       0.134500
     58 H22         -5.0550    -4.3890     1.7190 hn         1 FKY       0.315500
     59 H23         -5.8400    -2.8510     2.0130 hn         1 FKY       0.315500
     60 O29          8.4340    -0.3490     1.7140 os         1 FKY      -0.401100
@<TRIPOS>BOND
     1     1    12 2   
     2     1    15 1   
     3     1    37 1   
     4     2    15 1   
     5     2    38 1   
     6     2    39 1   
     7     2    40 1   
     8     3     4 ar  
     9     3    12 1   
    10     3    18 ar  
    11     4    16 ar  
    12     4    41 1   
    13     5    16 ar  
    14     5    17 ar  
    15     5    19 1   
    16     6    20 1   
    17     6    21 1   
    18     6    33 1   
    19     6    42 1   
    20     7     8 1   
    21     7    22 1   
    22     7    25 2   
    23     8    26 1   
    24     8    43 1   
    25     8    44 1   
    26     9    26 ar  
    27     9    27 ar  
    28     9    45 1   
    29    10    27 ar  
    30    10    28 ar  
    31    10    60 1   
    32    11    26 ar  
    33    11    28 ar  
    34    11    46 1   
    35    12    13 1   
    36    13    14 2   
    37    14    15 1   
    38    14    47 1   
    39    16    34 1   
    40    17    18 ar  
    41    18    48 1   
    42    19    20 1   
    43    20    24 1   
    44    20    49 1   
    45    21    22 1   
    46    21    50 1   
    47    21    51 1   
    48    22    23 1   
    49    23    24 1   
    50    23    52 1   
    51    23    53 1   
    52    24    54 1   
    53    24    55 1   
    54    27    56 1   
    55    28    57 1   
    56    29    30 1   
    57    29    31 1   
    58    29    32 1   
    59    29    60 1   
    60    34    35 1   
    61    34    36 2   
    62    35    58 1   
    63    35    59 1   
@<TRIPOS>SUBSTRUCTURE
     1 FKY         1 TEMP              0 ****  ****    0 ROOT
