@<TRIPOS>MOLECULE
FKZ
   28    27     1     0     0
SMALL
No Charge or Current Charge


@<TRIPOS>ATOM
      1 C1          -3.8260    -0.4730    -0.0010 c3         1 FKZ       0.149800
      2 C2          -2.5450     0.3870     0.0140 c3         1 FKZ      -0.078400
      3 C3          -1.2540    -0.4610    -0.0090 c3         1 FKZ      -0.074400
      4 C4           0.0330     0.3940     0.0070 c3         1 FKZ      -0.074400
      5 C5           1.3230    -0.4550    -0.0160 c3         1 FKZ      -0.074400
      6 C6           2.6090     0.4000     0.0000 c3         1 FKZ      -0.075400
      7 C7           3.8990    -0.4490    -0.0230 c3         1 FKZ      -0.075400
      8 C8           5.1830     0.4030    -0.0070 c3         1 FKZ      -0.088100
      9 N           -5.0400     0.3630     0.0240 n8         1 FKZ      -0.995200
     10 H12         -3.8440    -1.0940    -0.9070 h1         1 FKZ       0.025700
     11 H11         -3.8370    -1.1350     0.8760 h1         1 FKZ       0.025700
     12 H22         -2.5490     1.0590    -0.8530 hc         1 FKZ       0.045700
     13 H21         -2.5450     1.0180     0.9120 hc         1 FKZ       0.045700
     14 H31         -1.2500    -1.1340     0.8580 hc         1 FKZ       0.036200
     15 H32         -1.2550    -1.0930    -0.9050 hc         1 FKZ       0.036200
     16 H41          0.0290     1.0670    -0.8600 hc         1 FKZ       0.038200
     17 H42          0.0340     1.0270     0.9040 hc         1 FKZ       0.038200
     18 H52          1.3270    -1.1280     0.8510 hc         1 FKZ       0.036200
     19 H51          1.3220    -1.0870    -0.9120 hc         1 FKZ       0.036200
     20 H62          2.6050     1.0730    -0.8670 hc         1 FKZ       0.037200
     21 H61          2.6100     1.0320     0.8970 hc         1 FKZ       0.037200
     22 H72          3.9080    -1.1220     0.8440 hc         1 FKZ       0.036700
     23 H71          3.9030    -1.0810    -0.9190 hc         1 FKZ       0.036700
     24 H81          5.2210     1.0640    -0.8820 hc         1 FKZ       0.031367
     25 H83          5.2260     1.0230     0.8970 hc         1 FKZ       0.031367
     26 H82          6.0700    -0.2410    -0.0240 hc         1 FKZ       0.031367
     27 H           -5.0760     0.9240    -0.8360 hn         1 FKZ       0.390500
     28 H1          -5.8650    -0.2450    -0.0520 hn         1 FKZ       0.390500
@<TRIPOS>BOND
     1     1     2 1   
     2     1     9 1   
     3     1    10 1   
     4     1    11 1   
     5     2     3 1   
     6     2    12 1   
     7     2    13 1   
     8     3     4 1   
     9     3    14 1   
    10     3    15 1   
    11     4     5 1   
    12     4    16 1   
    13     4    17 1   
    14     5     6 1   
    15     5    18 1   
    16     5    19 1   
    17     6     7 1   
    18     6    20 1   
    19     6    21 1   
    20     7     8 1   
    21     7    22 1   
    22     7    23 1   
    23     8    24 1   
    24     8    25 1   
    25     8    26 1   
    26     9    27 1   
    27     9    28 1   
@<TRIPOS>SUBSTRUCTURE
     1 FKZ         1 TEMP              0 ****  ****    0 ROOT
