@<TRIPOS>MOLECULE
FKZ
   28    27     1     0     0
SMALL
abcg2


@<TRIPOS>ATOM
      1 C1          -3.7750    -0.4590    -0.0110 c3         1 FKZ       0.149800
      2 C2          -2.5100     0.3850     0.0060 c3         1 FKZ      -0.078400
      3 C3          -1.2390    -0.4550    -0.0150 c3         1 FKZ      -0.074400
      4 C4           0.0330     0.3830     0.0090 c3         1 FKZ      -0.074400
      5 C5           1.3060    -0.4550    -0.0210 c3         1 FKZ      -0.074400
      6 C6           2.5780     0.3840     0.0050 c3         1 FKZ      -0.075400
      7 C7           3.8530    -0.4500    -0.0300 c3         1 FKZ      -0.075400
      8 C8           5.1140     0.4030    -0.0020 c3         1 FKZ      -0.088100
      9 N           -4.9650     0.3810     0.0020 n8         1 FKZ      -0.995200
     10 H12         -3.7330    -1.1450    -0.8700 h1         1 FKZ       0.025700
     11 H11         -3.7930    -1.0910     0.8820 h1         1 FKZ       0.025700
     12 H22         -2.5130     1.0580    -0.8600 hc         1 FKZ       0.045700
     13 H21         -2.5180     1.0250     0.8940 hc         1 FKZ       0.045700
     14 H31         -1.2390    -1.1370     0.8430 hc         1 FKZ       0.036200
     15 H32         -1.2360    -1.0900    -0.9070 hc         1 FKZ       0.036200
     16 H41          0.0310     1.0700    -0.8450 hc         1 FKZ       0.038200
     17 H42          0.0360     1.0150     0.9050 hc         1 FKZ       0.038200
     18 H52          1.3070    -1.1440     0.8300 hc         1 FKZ       0.036200
     19 H51          1.3040    -1.0830    -0.9190 hc         1 FKZ       0.036200
     20 H62          2.5740     1.0750    -0.8460 hc         1 FKZ       0.037200
     21 H61          2.5810     1.0110     0.9040 hc         1 FKZ       0.037200
     22 H72          3.8570    -1.1410     0.8190 hc         1 FKZ       0.036700
     23 H71          3.8510    -1.0750    -0.9290 hc         1 FKZ       0.036700
     24 H81          5.1550     1.0720    -0.8630 hc         1 FKZ       0.031367
     25 H83          5.1490     1.0220     0.8970 hc         1 FKZ       0.031367
     26 H82          6.0170    -0.2100    -0.0160 hc         1 FKZ       0.031367
     27 H           -5.0190     0.8890    -0.8730 hn         1 FKZ       0.390500
     28 H1          -5.7920    -0.2030     0.0250 hn         1 FKZ       0.390500
@<TRIPOS>BOND
     1     1     2 1   
     2     1     9 1   
     3     1    10 1   
     4     1    11 1   
     5     2     3 1   
     6     2    12 1   
     7     2    13 1   
     8     3     4 1   
     9     3    14 1   
    10     3    15 1   
    11     4     5 1   
    12     4    16 1   
    13     4    17 1   
    14     5     6 1   
    15     5    18 1   
    16     5    19 1   
    17     6     7 1   
    18     6    20 1   
    19     6    21 1   
    20     7     8 1   
    21     7    22 1   
    22     7    23 1   
    23     8    24 1   
    24     8    25 1   
    25     8    26 1   
    26     9    27 1   
    27     9    28 1   
@<TRIPOS>SUBSTRUCTURE
     1 FKZ         1 TEMP              0 ****  ****    0 ROOT
