@<TRIPOS>MOLECULE
FL0
   17    17     1     0     0
SMALL
bcc


@<TRIPOS>ATOM
      1 C1          18.3770    12.4950   -24.4910 c3         1 FL0      -0.123000
      2 C2          18.6480    13.2880   -23.2290 c          1 FL0       0.585700
      3 C3          19.4140    14.5530   -23.3970 ca         1 FL0      -0.178600
      4 C4          19.8350    15.0120   -24.6450 ca         1 FL0      -0.081500
      5 C5          20.5440    16.1990   -24.7530 ca         1 FL0      -0.140500
      6 C6          20.8420    16.9360   -23.6150 ca         1 FL0      -0.098000
      7 C7          20.4270    16.4850   -22.3670 ca         1 FL0      -0.140500
      8 C8          19.7180    15.3020   -22.2580 ca         1 FL0      -0.081500
      9 O9          18.2700    12.9160   -22.1450 o          1 FL0      -0.488100
     10 BR1         17.3740    10.8770   -24.1420 br         1 FL0      -0.129400
     11 H1          17.8090    13.0940   -25.2040 h1         1 FL0       0.091700
     12 H2          19.3170    12.2120   -24.9690 h1         1 FL0       0.091700
     13 H3          19.6190    14.4580   -25.5490 ha         1 FL0       0.141500
     14 H4          20.8620    16.5470   -25.7260 ha         1 FL0       0.137000
     15 H5          21.3960    17.8610   -23.7000 ha         1 FL0       0.135000
     16 H6          20.6570    17.0580   -21.4790 ha         1 FL0       0.137000
     17 H7          19.4000    14.9560   -21.2840 ha         1 FL0       0.141500
@<TRIPOS>BOND
     1     1     2 1   
     2     1    10 1   
     3     1    11 1   
     4     1    12 1   
     5     2     3 1   
     6     2     9 2   
     7     3     4 ar  
     8     3     8 ar  
     9     4     5 ar  
    10     4    13 1   
    11     5     6 ar  
    12     5    14 1   
    13     6     7 ar  
    14     6    15 1   
    15     7     8 ar  
    16     7    16 1   
    17     8    17 1   
@<TRIPOS>SUBSTRUCTURE
     1 FL0         1 TEMP              0 ****  ****    0 ROOT
