@<TRIPOS>MOLECULE
FL0
   17    17     1     0     0
SMALL
No Charge or Current Charge


@<TRIPOS>ATOM
      1 C1          18.3320    12.4380   -24.5060 c3         1 FL0      -0.040400
      2 C2          18.6480    13.2580   -23.2430 c          1 FL0       0.585700
      3 C3          19.4230    14.5560   -23.3880 ca         1 FL0      -0.178600
      4 C4          19.8580    15.0250   -24.6510 ca         1 FL0      -0.063500
      5 C5          20.5740    16.2310   -24.7570 ca         1 FL0      -0.122500
      6 C6          20.8660    16.9840   -23.6100 ca         1 FL0      -0.080000
      7 C7          20.4410    16.5310   -22.3520 ca         1 FL0      -0.122500
      8 C8          19.7250    15.3260   -22.2400 ca         1 FL0      -0.063500
      9 O9          18.2810    12.8700   -22.1390 o          1 FL0      -0.488100
     10 Br1         17.3060    10.7460   -24.1830 br         1 FL0      -0.212000
     11 H1          17.7340    13.0520   -25.1890 h1         1 FL0       0.091700
     12 H2          19.2730    12.1560   -24.9920 h1         1 FL0       0.091700
     13 H3          19.6510    14.4700   -25.5630 ha         1 FL0       0.123500
     14 H4          20.9030    16.5820   -25.7330 ha         1 FL0       0.119000
     15 H5          21.4200    17.9170   -23.6950 ha         1 FL0       0.117000
     16 H6          20.6660    17.1130   -21.4610 ha         1 FL0       0.119000
     17 H7          19.4060    14.9960   -21.2530 ha         1 FL0       0.123500
@<TRIPOS>BOND
     1     1     2 1   
     2     1    10 1   
     3     1    11 1   
     4     1    12 1   
     5     2     3 1   
     6     2     9 2   
     7     3     4 ar  
     8     3     8 ar  
     9     4     5 ar  
    10     4    13 1   
    11     5     6 ar  
    12     5    14 1   
    13     6     7 ar  
    14     6    15 1   
    15     7     8 ar  
    16     7    16 1   
    17     8    17 1   
@<TRIPOS>SUBSTRUCTURE
     1 FL0         1 TEMP              0 ****  ****    0 ROOT
