@<TRIPOS>MOLECULE
FL1
   63    67     1     0     0
SMALL
No Charge or Current Charge


@<TRIPOS>ATOM
      1 S1          -5.0990    -0.0280    16.8420 sy         1 FL1       1.141600
      2 O1          -4.4120    -1.1700    16.2440 o          1 FL1      -0.532500
      3 O2          -5.1150     0.2310    18.2820 o          1 FL1      -0.532500
      4 N1          -6.6640    -0.2490    16.4260 n8         1 FL1      -0.999100
      5 C1          -4.7080     1.4680    15.9330 ca         1 FL1      -0.329500
      6 C2          -4.1560     1.3910    14.6370 ca         1 FL1      -0.013000
      7 C3          -3.8540     2.5690    13.9310 ca         1 FL1      -0.133500
      8 C4          -4.1000     3.8290    14.5070 ca         1 FL1       0.002700
      9 C5          -4.6490     3.9020    15.8000 ca         1 FL1      -0.133500
     10 C6          -4.9540     2.7300    16.5130 ca         1 FL1      -0.013000
     11 C7          -3.7660     5.1030    13.7440 c3         1 FL1      -0.075100
     12 C29         -2.3810     5.6570    14.1300 c3         1 FL1       0.119000
     13 N2          -2.0460     6.8800    13.3940 ns         1 FL1      -0.467900
     14 C8          -2.4620     8.1480    13.6950 cs         1 FL1       0.477400
     15 S2          -3.4520     8.5000    14.9980 s          1 FL1      -0.667400
     16 N3          -2.0160     9.0500    12.7630 ns         1 FL1      -0.349100
     17 C9          -2.0930    10.4610    12.6520 ca         1 FL1       0.021600
     18 C10         -2.1970    11.3070    13.7710 ca         1 FL1      -0.103000
     19 C11         -2.2540    12.6990    13.6040 ca         1 FL1      -0.108000
     20 C12         -2.1880    13.2740    12.3200 ca         1 FL1      -0.065000
     21 C13         -2.0670    12.4330    11.1840 ca         1 FL1      -0.104600
     22 C14         -2.0180    11.0330    11.3690 ca         1 FL1      -0.109000
     23 C15         -2.0000    12.9940     9.7780 c          1 FL1       0.709600
     24 O3          -1.2280    13.9130     9.5490 o          1 FL1      -0.695000
     25 O4          -2.6840    12.4590     8.9180 o          1 FL1      -0.695000
     26 C16         -2.2930    14.7310    12.1890 cc         1 FL1       0.220000
     27 C17          0.0550    14.9140    12.9270 cd         1 FL1      -0.062200
     28 C18          1.1040    15.7610    13.2260 cc         1 FL1      -0.326200
     29 C19          1.0230    17.2230    13.1440 c          1 FL1       0.591500
     30 C20         -0.2570    17.7610    12.7020 cc         1 FL1      -0.401200
     31 C21         -4.7450    17.4570    11.2710 ca         1 FL1      -0.259000
     32 C22         -5.8860    16.7140    10.9530 ca         1 FL1       0.185100
     33 C23         -5.8600    15.3160    11.0410 ca         1 FL1      -0.185000
     34 C24         -4.6880    14.6540    11.4460 ca         1 FL1       0.018000
     35 C25         -3.5290    15.3950    11.7640 ca         1 FL1      -0.141000
     36 C26         -3.5750    16.7970    11.6750 ca         1 FL1       0.250000
     37 C27         -1.1900    15.5220    12.5090 cd         1 FL1      -0.188800
     38 C28         -1.3160    16.9510    12.3980 cd         1 FL1       0.258000
     39 O5          -2.4730    17.5420    11.9920 os         1 FL1      -0.301000
     40 O6           1.9670    17.9470    13.4220 o          1 FL1      -0.609100
     41 O7          -7.0260    17.3450    10.5610 oh         1 FL1      -0.533100
     42 HN11        -6.6270    -1.1890    16.0400 hn         1 FL1       0.473000
     43 HN12        -6.7460     0.3480    15.6070 hn         1 FL1       0.473000
     44 H2          -3.9560     0.4260    14.1720 ha         1 FL1       0.133000
     45 H3          -3.4250     2.4980    12.9340 ha         1 FL1       0.121000
     46 H5          -4.8400     4.8710    16.2560 ha         1 FL1       0.121000
     47 H6          -5.3800     2.8090    17.5120 ha         1 FL1       0.133000
     48 H71         -4.5300     5.8650    13.9400 hc         1 FL1       0.075700
     49 H72         -3.7890     4.9170    12.6640 hc         1 FL1       0.075700
     50 H291        -1.6160     4.9000    13.9140 h1         1 FL1       0.064700
     51 H292        -2.3500     5.8620    15.2080 h1         1 FL1       0.064700
     52 HN2         -1.4510     6.7720    12.5810 hn         1 FL1       0.300500
     53 HN3         -1.5090     8.6250    11.9980 hn         1 FL1       0.304500
     54 H10         -2.2190    10.9010    14.7770 ha         1 FL1       0.126000
     55 H11         -2.3470    13.3400    14.4780 ha         1 FL1       0.111000
     56 H14         -1.9260    10.3860    10.4990 ha         1 FL1       0.135000
     57 H17          0.1890    13.8380    13.0050 ha         1 FL1       0.187000
     58 H18          2.0640    15.3730    13.5470 ha         1 FL1       0.183000
     59 H20         -0.3230    18.8380    12.6300 ha         1 FL1       0.195000
     60 H21         -4.7520    18.5420    11.2120 ha         1 FL1       0.125000
     61 H23         -6.7490    14.7410    10.7950 ha         1 FL1       0.129000
     62 H24         -4.6910    13.5680    11.5100 ha         1 FL1       0.140000
     63 HO7         -6.8550    18.3110    10.5590 ho         1 FL1       0.464000
@<TRIPOS>BOND
     1     1     2 2   
     2     1     3 2   
     3     1     4 1   
     4     1     5 1   
     5     4    42 1   
     6     4    43 1   
     7     5     6 ar  
     8     5    10 ar  
     9     6     7 ar  
    10     6    44 1   
    11     7     8 ar  
    12     7    45 1   
    13     8     9 ar  
    14     8    11 1   
    15     9    10 ar  
    16     9    46 1   
    17    10    47 1   
    18    11    12 1   
    19    11    48 1   
    20    11    49 1   
    21    12    13 1   
    22    12    50 1   
    23    12    51 1   
    24    13    14 1   
    25    13    52 1   
    26    14    15 2   
    27    14    16 1   
    28    16    17 1   
    29    16    53 1   
    30    17    18 ar  
    31    17    22 ar  
    32    18    19 ar  
    33    18    54 1   
    34    19    20 ar  
    35    19    55 1   
    36    20    21 ar  
    37    20    26 1   
    38    21    22 ar  
    39    21    23 1   
    40    22    56 1   
    41    23    24 1   
    42    23    25 1   
    43    26    35 1   
    44    26    37 2   
    45    27    28 2   
    46    27    37 1   
    47    27    57 1   
    48    28    29 1   
    49    28    58 1   
    50    29    30 1   
    51    29    40 2   
    52    30    38 2   
    53    30    59 1   
    54    31    32 ar  
    55    31    36 ar  
    56    31    60 1   
    57    32    33 ar  
    58    32    41 1   
    59    33    34 ar  
    60    33    61 1   
    61    34    35 ar  
    62    34    62 1   
    63    35    36 ar  
    64    36    39 1   
    65    37    38 1   
    66    38    39 1   
    67    41    63 1   
@<TRIPOS>SUBSTRUCTURE
     1 FL1         1 TEMP              0 ****  ****    0 ROOT
