@<TRIPOS>MOLECULE
FL1
   63    67     1     0     0
SMALL
bcc


@<TRIPOS>ATOM
      1 S1          -6.2100     0.7110    16.6890 sy         1 FL1       1.283200
      2 O1          -5.5110     0.4980    17.9460 o          1 FL1      -0.603300
      3 O2          -7.6440     0.9520    16.6830 o          1 FL1      -0.603300
      4 N1          -5.9680    -0.6460    15.7920 n8         1 FL1      -0.888700
      5 C1          -5.4260     2.0570    15.8470 ca         1 FL1      -0.329500
      6 C2          -4.1090     2.3750    16.1400 ca         1 FL1      -0.031000
      7 C3          -3.4910     3.4120    15.4550 ca         1 FL1      -0.151500
      8 C4          -4.1700     4.1360    14.4790 ca         1 FL1       0.002700
      9 C5          -5.4980     3.7970    14.2100 ca         1 FL1      -0.151500
     10 C6          -6.1300     2.7680    14.8820 ca         1 FL1      -0.031000
     11 C7          -3.5360     5.2570    13.7000 c3         1 FL1      -0.075100
     12 C29         -2.1980     5.7490    14.2390 c3         1 FL1       0.119000
     13 N2          -1.6650     6.8400    13.4570 ns         1 FL1      -0.534900
     14 C8          -2.0290     8.1210    13.5790 cs         1 FL1       0.611400
     15 S2          -3.1240     8.6370    14.7430 s          1 FL1      -0.667400
     16 N3          -1.4420     8.9510    12.6820 ns         1 FL1      -0.416100
     17 C9          -1.6290    10.3380    12.5550 ca         1 FL1       0.021600
     18 C10         -1.5250    11.2010    13.6420 ca         1 FL1      -0.121000
     19 C11         -1.6940    12.5600    13.4500 ca         1 FL1      -0.126000
     20 C12         -1.9450    13.0830    12.1830 ca         1 FL1      -0.065000
     21 C13         -2.0110    12.2260    11.0860 ca         1 FL1      -0.104600
     22 C14         -1.8570    10.8600    11.2890 ca         1 FL1      -0.127000
     23 C15         -2.2490    12.7740     9.6880 c          1 FL1       0.920200
     24 O3          -2.3930    14.0090     9.6190 o          1 FL1      -0.800300
     25 O4          -2.2760    11.9560     8.7540 o          1 FL1      -0.800300
     26 C16         -2.1600    14.5450    12.0800 cc         1 FL1       0.220000
     27 C17          0.2680    15.0210    12.0990 cd         1 FL1      -0.012200
     28 C18          1.2740    15.9190    12.1210 cc         1 FL1      -0.276200
     29 C19          1.0280    17.3580    12.1730 c          1 FL1       0.591500
     30 C20         -0.3560    17.7590    12.1940 cc         1 FL1      -0.351200
     31 C21         -4.9330    17.0270    12.2410 ca         1 FL1      -0.342300
     32 C22         -6.0500    16.2040    12.2460 ca         1 FL1       0.185100
     33 C23         -5.8990    14.8070    12.2060 ca         1 FL1      -0.203000
     34 C24         -4.6430    14.2600    12.1540 ca         1 FL1       0.000000
     35 C25         -3.4920    15.0620    12.1440 ca         1 FL1      -0.206300
     36 C26         -3.6740    16.4470    12.1900 ca         1 FL1       0.425000
     37 C27         -1.1050    15.4260    12.1270 cd         1 FL1      -0.254100
     38 C28         -1.3540    16.8360    12.1690 cd         1 FL1       0.367700
     39 O5          -2.6250    17.2880    12.1880 os         1 FL1      -0.389800
     40 O6           1.9580    18.1740    12.1950 o          1 FL1      -0.609100
     41 O7          -7.2960    16.6830    12.2910 oh         1 FL1      -0.494100
     42 HN11        -4.9940    -0.9200    15.7230 hn         1 FL1       0.417800
     43 HN12        -6.4030    -0.6130    14.8770 hn         1 FL1       0.417800
     44 H2          -3.5580     1.8320    16.8960 ha         1 FL1       0.151000
     45 H3          -2.4630     3.6430    15.7020 ha         1 FL1       0.139000
     46 H5          -6.0510     4.3540    13.4630 ha         1 FL1       0.139000
     47 H6          -7.1620     2.5340    14.6560 ha         1 FL1       0.151000
     48 H71         -4.2310     6.0990    13.6730 hc         1 FL1       0.075700
     49 H72         -3.4070     4.9310    12.6640 hc         1 FL1       0.075700
     50 H291        -1.4500     4.9560    14.2130 h1         1 FL1       0.064700
     51 H292        -2.2980     6.0750    15.2750 h1         1 FL1       0.064700
     52 HN2         -1.0170     6.5910    12.7250 hn         1 FL1       0.300500
     53 HN3         -0.9620     8.5160    11.9060 hn         1 FL1       0.304500
     54 H10         -1.3080    10.8200    14.6290 ha         1 FL1       0.144000
     55 H11         -1.6220    13.2270    14.3000 ha         1 FL1       0.129000
     56 H14         -1.9210    10.1950    10.4370 ha         1 FL1       0.153000
     57 H17          0.4860    13.9610    12.0530 ha         1 FL1       0.137000
     58 H18          2.3050    15.5860    12.0950 ha         1 FL1       0.133000
     59 H20         -0.5950    18.8160    12.2310 ha         1 FL1       0.145000
     60 H21         -5.0280    18.1060    12.2750 ha         1 FL1       0.143000
     61 H23         -6.7760    14.1740    12.2120 ha         1 FL1       0.147000
     62 H24         -4.5370    13.1840    12.1220 ha         1 FL1       0.158000
     63 HO7         -7.2980    17.6480    12.3090 ho         1 FL1       0.425000
@<TRIPOS>BOND
     1     1     2 2   
     2     1     3 2   
     3     1     4 1   
     4     1     5 1   
     5     4    42 1   
     6     4    43 1   
     7     5     6 ar  
     8     5    10 ar  
     9     6     7 ar  
    10     6    44 1   
    11     7     8 ar  
    12     7    45 1   
    13     8     9 ar  
    14     8    11 1   
    15     9    10 ar  
    16     9    46 1   
    17    10    47 1   
    18    11    12 1   
    19    11    48 1   
    20    11    49 1   
    21    12    13 1   
    22    12    50 1   
    23    12    51 1   
    24    13    14 1   
    25    13    52 1   
    26    14    15 2   
    27    14    16 1   
    28    16    17 1   
    29    16    53 1   
    30    17    18 ar  
    31    17    22 ar  
    32    18    19 ar  
    33    18    54 1   
    34    19    20 ar  
    35    19    55 1   
    36    20    21 ar  
    37    20    26 1   
    38    21    22 ar  
    39    21    23 1   
    40    22    56 1   
    41    23    24 1   
    42    23    25 1   
    43    26    35 1   
    44    26    37 2   
    45    27    28 2   
    46    27    37 1   
    47    27    57 1   
    48    28    29 1   
    49    28    58 1   
    50    29    30 1   
    51    29    40 2   
    52    30    38 2   
    53    30    59 1   
    54    31    32 ar  
    55    31    36 ar  
    56    31    60 1   
    57    32    33 ar  
    58    32    41 1   
    59    33    34 ar  
    60    33    61 1   
    61    34    35 ar  
    62    34    62 1   
    63    35    36 ar  
    64    36    39 1   
    65    37    38 1   
    66    38    39 1   
    67    41    63 1   
@<TRIPOS>SUBSTRUCTURE
     1 FL1         1 TEMP              0 ****  ****    0 ROOT
