@<TRIPOS>MOLECULE
FL2
   34    35     1     0     0
SMALL
No Charge or Current Charge


@<TRIPOS>ATOM
      1 C           -0.6220     0.3000    -5.1240 ca         1 FL2      -0.113000
      2 C1          -0.8750     0.2400    -3.7430 ca         1 FL2      -0.090500
      3 C2           0.1290    -0.1770    -2.8330 cp         1 FL2      -0.036000
      4 C3           1.3930    -0.5410    -3.3610 ca         1 FL2      -0.090500
      5 C4           1.6480    -0.4800    -4.7420 ca         1 FL2      -0.113000
      6 C5           0.6400    -0.0580    -5.6250 ca         1 FL2      -0.103000
      7 C6          -0.1340    -0.2550    -1.3610 cp         1 FL2      -0.066000
      8 C7           0.3050    -1.3790    -0.6190 ca         1 FL2      -0.079000
      9 C8           0.0690    -1.4790     0.7630 ca         1 FL2      -0.117000
     10 C9          -0.6120    -0.4560     1.4490 ca         1 FL2      -0.049300
     11 C10         -1.0430     0.6750     0.7270 ca         1 FL2      -0.126000
     12 C11         -0.8090     0.7750    -0.6540 ca         1 FL2       0.180000
     13 C12         -0.8550    -0.5780     2.9570 c3         1 FL2      -0.073400
     14 C13         -2.3300    -0.3240     3.3550 c3         1 FL2      -0.080100
     15 C14          0.1050     0.3340     3.7470 c          1 FL2       0.589100
     16 O            0.1410     1.5530     3.6300 o          1 FL2      -0.472000
     17 O1           0.9020    -0.3810     4.6050 os         1 FL2      -0.446100
     18 F           -1.2170     1.8960    -1.2910 f          1 FL2      -0.176000
     19 C16          1.8500     0.3430     5.4120 c3         1 FL2       0.151900
     20 H           -1.4060     0.6220    -5.8070 ha         1 FL2       0.113500
     21 H1          -1.8630     0.5060    -3.3750 ha         1 FL2       0.116500
     22 H3           2.1870    -0.8630    -2.6910 ha         1 FL2       0.116500
     23 H4           2.6260    -0.7590    -5.1270 ha         1 FL2       0.113500
     24 H5           0.8360    -0.0110    -6.6940 ha         1 FL2       0.113000
     25 H7           0.8240    -2.1900    -1.1250 ha         1 FL2       0.121000
     26 H8           0.4180    -2.3590     1.2980 ha         1 FL2       0.116000
     27 H10         -1.5510     1.4910     1.2330 ha         1 FL2       0.135000
     28 H12         -0.6340    -1.6080     3.2630 hc         1 FL2       0.079700
     29 H131        -2.6240     0.7150     3.1670 hc         1 FL2       0.047033
     30 H132        -3.0000    -0.9800     2.7880 hc         1 FL2       0.047033
     31 H133        -2.4780    -0.5270     4.4230 hc         1 FL2       0.047033
     32 H161         2.4180    -0.3490     6.0470 h1         1 FL2       0.048700
     33 H162         2.5630     0.8910     4.7820 h1         1 FL2       0.048700
     34 H163         1.3380     1.0620     6.0650 h1         1 FL2       0.048700
@<TRIPOS>BOND
     1     1     2 ar  
     2     1     6 ar  
     3     1    20 1   
     4     2     3 ar  
     5     2    21 1   
     6     3     4 ar  
     7     3     7 1   
     8     4     5 ar  
     9     4    22 1   
    10     5     6 ar  
    11     5    23 1   
    12     6    24 1   
    13     7     8 ar  
    14     7    12 ar  
    15     8     9 ar  
    16     8    25 1   
    17     9    10 ar  
    18     9    26 1   
    19    10    11 ar  
    20    10    13 1   
    21    11    12 ar  
    22    11    27 1   
    23    12    18 1   
    24    13    14 1   
    25    13    15 1   
    26    13    28 1   
    27    14    29 1   
    28    14    30 1   
    29    14    31 1   
    30    15    16 2   
    31    15    17 1   
    32    17    19 1   
    33    19    32 1   
    34    19    33 1   
    35    19    34 1   
@<TRIPOS>SUBSTRUCTURE
     1 FL2         1 TEMP              0 ****  ****    0 ROOT
