@<TRIPOS>MOLECULE
FL2
   34    35     1     0     0
SMALL
bcc


@<TRIPOS>ATOM
      1 C           -0.8230     0.3840    -5.0630 ca         1 FL2      -0.131000
      2 C1          -0.9820     0.2930    -3.6880 ca         1 FL2      -0.108500
      3 C2           0.0700    -0.1420    -2.8800 cp         1 FL2      -0.036000
      4 C3           1.2820    -0.4800    -3.4820 ca         1 FL2      -0.108500
      5 C4           1.4400    -0.3870    -4.8580 ca         1 FL2      -0.131000
      6 C5           0.3890     0.0470    -5.6530 ca         1 FL2      -0.121000
      7 C6          -0.0850    -0.2840    -1.4180 cp         1 FL2      -0.066000
      8 C7           0.3100    -1.4490    -0.7620 ca         1 FL2      -0.097000
      9 C8           0.1770    -1.5900     0.6110 ca         1 FL2      -0.135000
     10 C9          -0.3550    -0.5650     1.3840 ca         1 FL2      -0.049300
     11 C10         -0.7480     0.6100     0.7500 ca         1 FL2      -0.144000
     12 C11         -0.6060     0.7250    -0.6160 ca         1 FL2       0.144900
     13 C12         -0.5220    -0.7360     2.8710 c3         1 FL2      -0.073400
     14 C13         -1.9690    -0.4950     3.3230 c3         1 FL2      -0.080100
     15 C14          0.4440     0.1540     3.6330 c          1 FL2       0.638100
     16 O            1.1770     0.9720     3.1400 o          1 FL2      -0.521000
     17 O1           0.3850    -0.0850     4.9350 os         1 FL2      -0.422900
     18 F           -0.9690     1.8850    -1.1900 f          1 FL2      -0.140900
     19 C16          1.2290     0.6880     5.7890 c3         1 FL2       0.128700
     20 H           -1.6510     0.7140    -5.6760 ha         1 FL2       0.131500
     21 H1          -1.9400     0.5380    -3.2510 ha         1 FL2       0.134500
     22 H3           2.1130    -0.8080    -2.8710 ha         1 FL2       0.134500
     23 H4           2.3890    -0.6520    -5.3060 ha         1 FL2       0.131500
     24 H5           0.5110     0.1210    -6.7260 ha         1 FL2       0.131000
     25 H7           0.7140    -2.2690    -1.3430 ha         1 FL2       0.139000
     26 H8           0.4890    -2.5130     1.0830 ha         1 FL2       0.134000
     27 H10         -1.1610     1.4420     1.3060 ha         1 FL2       0.153000
     28 H12         -0.2610    -1.7680     3.1280 hc         1 FL2       0.079700
     29 H131        -2.2780     0.5380     3.1610 hc         1 FL2       0.047033
     30 H132        -2.6410    -1.1380     2.7570 hc         1 FL2       0.047033
     31 H133        -2.0980    -0.7250     4.3790 hc         1 FL2       0.047033
     32 H161         1.0080     0.3620     6.8010 h1         1 FL2       0.048700
     33 H162         2.2820     0.5090     5.5750 h1         1 FL2       0.048700
     34 H163         1.0200     1.7530     5.6980 h1         1 FL2       0.048700
@<TRIPOS>BOND
     1     1     2 ar  
     2     1     6 ar  
     3     1    20 1   
     4     2     3 ar  
     5     2    21 1   
     6     3     4 ar  
     7     3     7 1   
     8     4     5 ar  
     9     4    22 1   
    10     5     6 ar  
    11     5    23 1   
    12     6    24 1   
    13     7     8 ar  
    14     7    12 ar  
    15     8     9 ar  
    16     8    25 1   
    17     9    10 ar  
    18     9    26 1   
    19    10    11 ar  
    20    10    13 1   
    21    11    12 ar  
    22    11    27 1   
    23    12    18 1   
    24    13    14 1   
    25    13    15 1   
    26    13    28 1   
    27    14    29 1   
    28    14    30 1   
    29    14    31 1   
    30    15    16 2   
    31    15    17 1   
    32    17    19 1   
    33    19    32 1   
    34    19    33 1   
    35    19    34 1   
@<TRIPOS>SUBSTRUCTURE
     1 FL2         1 TEMP              0 ****  ****    0 ROOT
