@<TRIPOS>MOLECULE
FL3
   23    24     1     0     0
SMALL
bcc


@<TRIPOS>ATOM
      1 O1          12.4580    29.0200     9.9330 o          1 FL3      -0.527100
      2 C2          11.3020    29.1490     9.5850 c          1 FL3       0.584700
      3 C1          10.8610    28.7910     8.1920 c3         1 FL3      -0.195100
      4 C3          10.2770    29.6710    10.5340 ca         1 FL3      -0.180600
      5 C4           8.9240    29.8410    10.1530 ca         1 FL3      -0.098000
      6 C6           8.0020    30.3180    11.0400 ca         1 FL3      -0.128000
      7 C8           8.3740    30.6540    12.3630 ca         1 FL3      -0.017000
      8 C11          7.4430    31.1470    13.3060 ca         1 FL3      -0.124000
      9 C12          7.8420    31.4590    14.5770 ca         1 FL3      -0.113000
     10 C10          9.1890    31.2960    14.9660 ca         1 FL3      -0.130000
     11 C9          10.1120    30.8220    14.0750 ca         1 FL3      -0.105000
     12 C7           9.7290    30.4890    12.7530 ca         1 FL3      -0.056000
     13 C5          10.6590    29.9950    11.8160 ca         1 FL3      -0.049000
     14 H1          11.6980    28.3950     7.6210 hc         1 FL3       0.061033
     15 H2          10.0640    28.0470     8.2120 hc         1 FL3       0.061033
     16 H3          10.4670    29.6680     7.6740 hc         1 FL3       0.061033
     17 H4           8.6030    29.5910     9.1500 ha         1 FL3       0.131000
     18 H5           6.9700    30.4410    10.7360 ha         1 FL3       0.134000
     19 H6           6.4100    31.2730    13.0080 ha         1 FL3       0.133000
     20 H7           7.1220    31.8330    15.2930 ha         1 FL3       0.132000
     21 H8           9.4870    31.5490    15.9750 ha         1 FL3       0.134000
     22 H9          11.1470    30.6970    14.3700 ha         1 FL3       0.136000
     23 H10         11.6900    29.8720    12.1230 ha         1 FL3       0.152000
@<TRIPOS>BOND
     1     1     2 2   
     2     2     3 1   
     3     2     4 1   
     4     3    14 1   
     5     3    15 1   
     6     3    16 1   
     7     4     5 ar  
     8     4    13 ar  
     9     5     6 ar  
    10     5    17 1   
    11     6     7 ar  
    12     6    18 1   
    13     7     8 ar  
    14     7    12 ar  
    15     8     9 ar  
    16     8    19 1   
    17     9    10 ar  
    18     9    20 1   
    19    10    11 ar  
    20    10    21 1   
    21    11    12 ar  
    22    11    22 1   
    23    12    13 ar  
    24    13    23 1   
@<TRIPOS>SUBSTRUCTURE
     1 FL3         1 TEMP              0 ****  ****    0 ROOT
