@<TRIPOS>MOLECULE
FL3
   23    24     1     0     0
SMALL
No Charge or Current Charge


@<TRIPOS>ATOM
      1 O1          12.4860    28.9900     9.9010 o          1 FL3      -0.527100
      2 C2          11.3180    29.1320     9.5560 c          1 FL3       0.584700
      3 C1          10.9070    28.7680     8.1270 c3         1 FL3      -0.195100
      4 C3          10.2790    29.6620    10.5260 ca         1 FL3      -0.180600
      5 C4           8.9250    29.8340    10.1500 ca         1 FL3      -0.080000
      6 C6           7.9840    30.3270    11.0700 ca         1 FL3      -0.110000
      7 C8           8.3750    30.6570    12.3790 ca         1 FL3      -0.017000
      8 C11          7.4320    31.1510    13.3010 ca         1 FL3      -0.106000
      9 C12          7.8300    31.4790    14.6080 ca         1 FL3      -0.095000
     10 C10          9.1710    31.3140    14.9970 ca         1 FL3      -0.112000
     11 C9          10.1150    30.8210    14.0790 ca         1 FL3      -0.087000
     12 C7           9.7200    30.4910    12.7680 ca         1 FL3      -0.056000
     13 C5          10.6630    29.9970    11.8460 ca         1 FL3      -0.031000
     14 H1          11.7480    28.3980     7.5290 hc         1 FL3       0.061033
     15 H2          10.0910    28.0390     8.1640 hc         1 FL3       0.061033
     16 H3          10.4340    29.6380     7.6590 hc         1 FL3       0.061033
     17 H4           8.5830    29.5900     9.1480 ha         1 FL3       0.113000
     18 H5           6.9480    30.4520    10.7620 ha         1 FL3       0.116000
     19 H6           6.3930    31.2810    13.0060 ha         1 FL3       0.115000
     20 H7           7.1010    31.8600    15.3190 ha         1 FL3       0.114000
     21 H8           9.4780    31.5680    16.0090 ha         1 FL3       0.116000
     22 H9          11.1500    30.6960    14.3900 ha         1 FL3       0.118000
     23 H10         11.6970    29.8740    12.1610 ha         1 FL3       0.134000
@<TRIPOS>BOND
     1     1     2 2   
     2     2     3 1   
     3     2     4 1   
     4     3    14 1   
     5     3    15 1   
     6     3    16 1   
     7     4     5 ar  
     8     4    13 ar  
     9     5     6 ar  
    10     5    17 1   
    11     6     7 ar  
    12     6    18 1   
    13     7     8 ar  
    14     7    12 ar  
    15     8     9 ar  
    16     8    19 1   
    17     9    10 ar  
    18     9    20 1   
    19    10    11 ar  
    20    10    21 1   
    21    11    12 ar  
    22    11    22 1   
    23    12    13 ar  
    24    13    23 1   
@<TRIPOS>SUBSTRUCTURE
     1 FL3         1 TEMP              0 ****  ****    0 ROOT
