@<TRIPOS>MOLECULE
FL6
   18    17     1     0     0
SMALL
bcc


@<TRIPOS>ATOM
      1 N          -21.7760     1.6290     2.4760 n8         1 FL6      -0.886800
      2 CA         -21.7980     1.3200     3.9010 c3         1 FL6       0.009500
      3 C          -21.5430     2.5330     4.8320 c          1 FL6       0.903600
      4 O          -20.9420     2.3000     5.9030 o          1 FL6      -0.834300
      5 CB         -20.8230     0.1850     4.1890 c3         1 FL6      -0.100400
      6 CG         -20.9660    -0.3540     5.5830 c          1 FL6       0.686100
      7 OD1        -22.0200    -0.6410     6.0980 o          1 FL6      -0.570000
      8 OD2        -19.7910    -0.5890     6.1620 os         1 FL6      -0.417900
      9 CM1        -19.8080    -1.1440     7.4730 c3         1 FL6       0.137700
     10 OXT        -21.9840     3.6320     4.4460 o          1 FL6      -0.834300
     11 H1         -22.3700     2.4380     2.3330 hn         1 FL6       0.328800
     12 H2         -20.8460     1.9540     2.2300 hn         1 FL6       0.328800
     13 H4         -22.8080     0.9570     4.1300 h1         1 FL6       0.059700
     14 H5         -21.0270    -0.6440     3.5030 hc         1 FL6       0.048200
     15 H6         -19.7960     0.5060     4.0030 hc         1 FL6       0.048200
     16 H7         -18.7680    -1.2520     7.7670 h1         1 FL6       0.030700
     17 H8         -20.3130    -0.4860     8.1810 h1         1 FL6       0.030700
     18 H9         -20.2890    -2.1220     7.4930 h1         1 FL6       0.030700
@<TRIPOS>BOND
     1     1     2 1   
     2     1    11 1   
     3     1    12 1   
     4     2     3 1   
     5     2     5 1   
     6     2    13 1   
     7     3     4 1   
     8     3    10 1   
     9     5     6 1   
    10     5    14 1   
    11     5    15 1   
    12     6     7 2   
    13     6     8 1   
    14     8     9 1   
    15     9    16 1   
    16     9    17 1   
    17     9    18 1   
@<TRIPOS>SUBSTRUCTURE
     1 FL6         1 TEMP              0 ****  ****    0 ROOT
