@<TRIPOS>MOLECULE
FL6
   18    17     1     0     0
SMALL
No Charge or Current Charge


@<TRIPOS>ATOM
      1 N          -21.6820     1.7420     2.4390 n8         1 FL6      -0.886800
      2 CA         -21.6730     1.3310     3.8950 c3         1 FL6       0.009500
      3 C          -21.1450     2.4030     4.9440 c          1 FL6       0.903600
      4 O          -20.1230     3.0290     4.6830 o          1 FL6      -0.834300
      5 CB         -20.9120    -0.0120     4.0430 c3         1 FL6      -0.100400
      6 CG         -21.1040    -0.6020     5.4450 c          1 FL6       0.686100
      7 OD1        -22.0960    -1.2380     5.7850 o          1 FL6      -0.570000
      8 OD2        -20.0160    -0.3770     6.2490 os         1 FL6      -0.417900
      9 CM1        -20.0490    -0.8860     7.5930 c3         1 FL6       0.137700
     10 OXT        -21.8460     2.6630     5.9150 o          1 FL6      -0.834300
     11 H1         -22.2570     2.5850     2.3290 hn         1 FL6       0.328800
     12 H2         -20.7390     2.0550     2.1800 hn         1 FL6       0.328800
     13 H4         -22.7210     1.1390     4.1650 h1         1 FL6       0.059700
     14 H5         -21.3000    -0.7260     3.3070 hc         1 FL6       0.048200
     15 H6         -19.8470     0.1800     3.8670 hc         1 FL6       0.048200
     16 H7         -19.1200    -0.6310     8.1180 h1         1 FL6       0.030700
     17 H8         -20.8880    -0.4540     8.1530 h1         1 FL6       0.030700
     18 H9         -20.1520    -1.9790     7.5940 h1         1 FL6       0.030700
@<TRIPOS>BOND
     1     1     2 1   
     2     1    11 1   
     3     1    12 1   
     4     2     3 1   
     5     2     5 1   
     6     2    13 1   
     7     3     4 1   
     8     3    10 1   
     9     5     6 1   
    10     5    14 1   
    11     5    15 1   
    12     6     7 2   
    13     6     8 1   
    14     8     9 1   
    15     9    16 1   
    16     9    17 1   
    17     9    18 1   
@<TRIPOS>SUBSTRUCTURE
     1 FL6         1 TEMP              0 ****  ****    0 ROOT
