@<TRIPOS>MOLECULE
FL7
   50    52     1     0     0
SMALL
No Charge or Current Charge


@<TRIPOS>ATOM
      1 C           -0.8170    -0.1910    -2.8580 c          1 FL7       0.560000
      2 N            1.4140     0.9090    -2.5200 n2         1 FL7      -0.561900
      3 O           -1.7110     0.0520    -3.6620 o          1 FL7      -0.520000
      4 Cl           3.1970    -3.0810     1.8530 cl         1 FL7      -0.190000
      5 CA           0.6650    -0.1160    -3.2860 c3         1 FL7       0.020800
      6 C13          1.5450     0.8170    -1.2310 ce         1 FL7       0.531500
      7 CAC          2.6040     3.2390     1.5240 ca         1 FL7      -0.159000
      8 CAD          1.9270     2.2190     0.8360 ca         1 FL7       0.194000
      9 CAE          2.2910     1.8760    -0.4840 ca         1 FL7      -0.182900
     10 CAJ          3.6430     3.9450     0.8970 ca         1 FL7      -0.069000
     11 CAK          3.9930     3.6350    -0.4260 ca         1 FL7      -0.134000
     12 CAL          3.3160     2.6160    -1.1180 ca         1 FL7      -0.045000
     13 CAM         -0.2980    -2.3110    -0.0400 ca         1 FL7      -0.127000
     14 CAN         -0.0900    -1.0350    -0.6100 ca         1 FL7      -0.002000
     15 NAO         -1.0920    -0.5000    -1.5010 n          1 FL7      -0.243400
     16 CAP         -2.5200    -0.5150    -1.0710 c3         1 FL7       0.100000
     17 CAQ         -2.7500    -0.2650     0.4460 c3         1 FL7       0.146800
     18 NAR         -4.1640     0.0150     0.8470 n3         1 FL7      -0.736600
     19 CAS         -5.0840    -1.1110     0.5150 c3         1 FL7       0.175300
     20 CAT         -6.5860    -0.8060     0.6880 c3         1 FL7      -0.091600
     21 CAU          0.6990    -2.9300     0.7320 ca         1 FL7      -0.073000
     22 CAV          1.2040    -0.4590    -0.5260 ca         1 FL7      -0.196900
     23 CAW         -4.2810     0.4530     2.2690 c3         1 FL7       0.175300
     24 CAX         -3.5070     1.7390     2.6280 c3         1 FL7      -0.091600
     25 CAY          1.9420    -2.3070     0.8940 ca         1 FL7       0.101000
     26 CAZ          2.2000    -1.0870     0.2550 ca         1 FL7      -0.058000
     27 HA           1.1010    -1.1140    -3.1520 h1         1 FL7       0.083200
     28 HAA          0.6870     0.1110    -4.3600 h1         1 FL7       0.083200
     29 HAC          2.3140     3.4870     2.5420 ha         1 FL7       0.135000
     30 HAJ          4.1670     4.7360     1.4300 ha         1 FL7       0.120000
     31 HAK          4.7890     4.1890    -0.9200 ha         1 FL7       0.123000
     32 HAL          3.6010     2.3940    -2.1450 ha         1 FL7       0.132000
     33 HAM         -1.2420    -2.8310    -0.1860 ha         1 FL7       0.131000
     34 HAP         -3.0620     0.2700    -1.6120 h1         1 FL7       0.067700
     35 HAPA        -2.9550    -1.4800    -1.3580 h1         1 FL7       0.067700
     36 HAQ         -2.3720    -1.1220     1.0190 h1         1 FL7       0.047200
     37 HAQA        -2.1150     0.5920     0.7040 h1         1 FL7       0.047200
     38 HAS         -4.9530    -1.4000    -0.5350 h1         1 FL7       0.028200
     39 HASA        -4.8330    -1.9930     1.1210 h1         1 FL7       0.028200
     40 HAT         -6.8600    -0.7140     1.7440 hc         1 FL7       0.037700
     41 HATA        -6.8540     0.1220     0.1690 hc         1 FL7       0.037700
     42 HATB        -7.1840    -1.6200     0.2610 hc         1 FL7       0.037700
     43 HAU          0.5130    -3.8980     1.1910 ha         1 FL7       0.135000
     44 HAW         -5.3310     0.6570     2.5080 h1         1 FL7       0.028200
     45 HAWA        -3.9520    -0.3530     2.9390 h1         1 FL7       0.028200
     46 HAX         -2.4240     1.5690     2.6340 hc         1 FL7       0.037700
     47 HAXA        -3.7370     2.5410     1.9170 hc         1 FL7       0.037700
     48 HAXB        -3.7930     2.0780     3.6300 hc         1 FL7       0.037700
     49 HAZ          3.1860    -0.6380     0.3530 ha         1 FL7       0.139000
     50 FAA          0.9020     1.5940     1.4570 f          1 FL7      -0.174000
@<TRIPOS>BOND
     1     1     3 2   
     2     1     5 1   
     3     1    15 1   
     4     2     5 1   
     5     2     6 2   
     6     4    25 1   
     7     5    27 1   
     8     5    28 1   
     9     6     9 1   
    10     6    22 1   
    11     7     8 ar  
    12     7    10 ar  
    13     7    29 1   
    14     8     9 ar  
    15     8    50 1   
    16     9    12 ar  
    17    10    11 ar  
    18    10    30 1   
    19    11    12 ar  
    20    11    31 1   
    21    12    32 1   
    22    13    14 ar  
    23    13    21 ar  
    24    13    33 1   
    25    14    15 1   
    26    14    22 ar  
    27    15    16 1   
    28    16    17 1   
    29    16    34 1   
    30    16    35 1   
    31    17    18 1   
    32    17    36 1   
    33    17    37 1   
    34    18    19 1   
    35    18    23 1   
    36    19    20 1   
    37    19    38 1   
    38    19    39 1   
    39    20    40 1   
    40    20    41 1   
    41    20    42 1   
    42    21    25 ar  
    43    21    43 1   
    44    22    26 ar  
    45    23    24 1   
    46    23    44 1   
    47    23    45 1   
    48    24    46 1   
    49    24    47 1   
    50    24    48 1   
    51    25    26 ar  
    52    26    49 1   
@<TRIPOS>SUBSTRUCTURE
     1 FL7         1 TEMP              0 ****  ****    0 ROOT
