@<TRIPOS>MOLECULE
FL7
   50    52     1     0     0
SMALL
abcg2


@<TRIPOS>ATOM
      1 C           -0.9740     0.4350    -2.6830 c          1 FL7       0.560000
      2 N            1.1540     1.3260    -2.0530 n2         1 FL7      -0.561900
      3 O           -1.8720     1.0950    -3.1680 o          1 FL7      -0.520000
      4 CL           2.9820    -3.8550     0.8080 cl         1 FL7      -0.190000
      5 CA           0.4740     0.5990    -3.1030 c3         1 FL7       0.020800
      6 C13          1.4040     0.7170    -0.9660 ce         1 FL7       0.531500
      7 CAC          2.4860     2.1020     2.3950 ca         1 FL7      -0.159000
      8 CAD          1.8120     1.3940     1.4210 ca         1 FL7       0.194000
      9 CAE          2.1520     1.4590     0.0760 ca         1 FL7      -0.182900
     10 CAJ          3.5500     2.9090     2.0160 ca         1 FL7      -0.069000
     11 CAK          3.9160     3.0020     0.6790 ca         1 FL7      -0.134000
     12 CAL          3.2160     2.2880    -0.2790 ca         1 FL7      -0.045000
     13 CAM         -0.3860    -2.6070    -0.9080 ca         1 FL7      -0.127000
     14 CAN         -0.1580    -1.2470    -1.1180 ca         1 FL7      -0.002000
     15 NAO         -1.1870    -0.4610    -1.6750 n          1 FL7      -0.243400
     16 CAP         -2.5180    -0.5310    -1.0720 c3         1 FL7       0.100000
     17 CAQ         -2.6540     0.4820     0.0600 c3         1 FL7       0.146800
     18 NAR         -3.9020     0.2900     0.7730 n3         1 FL7      -0.736600
     19 CAS         -3.7690    -0.7100     1.8220 c3         1 FL7       0.175300
     20 CAT         -5.0970    -1.3060     2.2580 c3         1 FL7      -0.091600
     21 CAU          0.5660    -3.4130    -0.3170 ca         1 FL7      -0.073000
     22 CAV          1.0690    -0.7000    -0.7210 ca         1 FL7      -0.196900
     23 CAW         -4.4660     1.5470     1.2450 c3         1 FL7       0.175300
     24 CAX         -5.1260     2.3340     0.1230 c3         1 FL7      -0.091600
     25 CAY          1.7760    -2.8560     0.0740 ca         1 FL7       0.101000
     26 CAZ          2.0280    -1.5150    -0.1220 ca         1 FL7      -0.058000
     27 HA           0.9340    -0.3740    -3.3100 h1         1 FL7       0.083200
     28 HAA          0.5000     1.1870    -4.0180 h1         1 FL7       0.083200
     29 HAC          2.1780     2.0280     3.4290 ha         1 FL7       0.135000
     30 HAJ          4.0890     3.4660     2.7690 ha         1 FL7       0.120000
     31 HAK          4.7470     3.6280     0.3850 ha         1 FL7       0.123000
     32 HAL          3.4990     2.3530    -1.3210 ha         1 FL7       0.132000
     33 HAM         -1.3200    -3.0530    -1.2240 ha         1 FL7       0.131000
     34 HAP         -3.2700    -0.3450    -1.8360 h1         1 FL7       0.067700
     35 HAPA        -2.6880    -1.5420    -0.7070 h1         1 FL7       0.067700
     36 HAQ         -1.7820     0.4170     0.7290 h1         1 FL7       0.047200
     37 HAQA        -2.6260     1.4830    -0.3740 h1         1 FL7       0.047200
     38 HAS         -3.1470    -1.5240     1.4380 h1         1 FL7       0.028200
     39 HASA        -3.2310    -0.3090     2.6970 h1         1 FL7       0.028200
     40 HAT         -5.7520    -0.5730     2.7300 hc         1 FL7       0.037700
     41 HATA        -5.6270    -1.7310     1.4050 hc         1 FL7       0.037700
     42 HATB        -4.9290    -2.1020     2.9840 hc         1 FL7       0.037700
     43 HAU          0.3690    -4.4660    -0.1720 ha         1 FL7       0.135000
     44 HAW         -5.2230     1.3300     2.0000 h1         1 FL7       0.028200
     45 HAWA        -3.7070     2.1670     1.7480 h1         1 FL7       0.028200
     46 HAX         -4.4290     2.5660    -0.6830 hc         1 FL7       0.037700
     47 HAXA        -5.9550     1.7680    -0.3040 hc         1 FL7       0.037700
     48 HAXB        -5.5180     3.2800     0.4980 hc         1 FL7       0.037700
     49 HAZ          2.9770    -1.0920     0.1820 ha         1 FL7       0.139000
     50 FAA          0.7700     0.6340     1.7910 f          1 FL7      -0.174000
@<TRIPOS>BOND
     1     1     3 2   
     2     1     5 1   
     3     1    15 1   
     4     2     5 1   
     5     2     6 2   
     6     4    25 1   
     7     5    27 1   
     8     5    28 1   
     9     6     9 1   
    10     6    22 1   
    11     7     8 ar  
    12     7    10 ar  
    13     7    29 1   
    14     8     9 ar  
    15     8    50 1   
    16     9    12 ar  
    17    10    11 ar  
    18    10    30 1   
    19    11    12 ar  
    20    11    31 1   
    21    12    32 1   
    22    13    14 ar  
    23    13    21 ar  
    24    13    33 1   
    25    14    15 1   
    26    14    22 ar  
    27    15    16 1   
    28    16    17 1   
    29    16    34 1   
    30    16    35 1   
    31    17    18 1   
    32    17    36 1   
    33    17    37 1   
    34    18    19 1   
    35    18    23 1   
    36    19    20 1   
    37    19    38 1   
    38    19    39 1   
    39    20    40 1   
    40    20    41 1   
    41    20    42 1   
    42    21    25 ar  
    43    21    43 1   
    44    22    26 ar  
    45    23    24 1   
    46    23    44 1   
    47    23    45 1   
    48    24    46 1   
    49    24    47 1   
    50    24    48 1   
    51    25    26 ar  
    52    26    49 1   
@<TRIPOS>SUBSTRUCTURE
     1 FL7         1 TEMP              0 ****  ****    0 ROOT
