@<TRIPOS>MOLECULE
FL8
   32    34     1     0     0
SMALL
No Charge or Current Charge


@<TRIPOS>ATOM
      1 Br3         -2.6480     1.1970    -3.1520 br         1 FL8      -0.069100
      2 Br5          2.9570    -0.2830    -3.0470 br         1 FL8      -0.069100
      3 O1           0.8990     0.2270     2.1090 os         1 FL8      -0.211200
      4 C2          -0.1210    -0.2970     1.3340 cc         1 FL8       0.194900
      5 C3          -1.0130    -1.2240     1.8600 cd         1 FL8      -0.265400
      6 C4          -1.1560    -1.3460     3.3240 c          1 FL8       0.590900
      7 C4A         -0.3700    -0.3680     4.1110 ca         1 FL8      -0.187600
      8 C5          -0.5790    -0.1930     5.4980 ca         1 FL8      -0.065000
      9 C6           0.1860     0.7410     6.2160 ca         1 FL8       0.108100
     10 C7           1.1670     1.4970     5.5550 ca         1 FL8      -0.151000
     11 C8           1.3760     1.3180     4.1760 ca         1 FL8      -0.098000
     12 C8A          0.5990     0.3990     3.4480 ca         1 FL8       0.112100
     13 C1          -0.0390    -0.0640    -0.1060 ca         1 FL8      -0.108800
     14 C9          -1.1680     0.3750    -0.8270 ca         1 FL8       0.004500
     15 C10         -1.0810     0.6080    -2.2110 ca         1 FL8      -0.107900
     16 C11          0.1400     0.4130    -2.8860 ca         1 FL8       0.218100
     17 C12          1.2730    -0.0120    -2.1660 ca         1 FL8      -0.107900
     18 C13          1.1840    -0.2460    -0.7820 ca         1 FL8       0.004500
     19 O4           0.2260     0.6400    -4.2300 oh         1 FL8      -0.501100
     20 C3B         -1.9380    -2.1060     1.0330 c3         1 FL8      -0.031900
     21 O2          -1.8990    -2.1570     3.8660 o          1 FL8      -0.533100
     22 O6          -0.0240     0.9040     7.5540 oh         1 FL8      -0.527100
     23 H51         -1.3320    -0.7790     6.0220 ha         1 FL8       0.155000
     24 H71          1.7720     2.2180     6.1010 ha         1 FL8       0.120000
     25 H81          2.1450     1.8930     3.6660 ha         1 FL8       0.135000
     26 H2'1        -2.1120     0.5380    -0.3120 ha         1 FL8       0.144000
     27 H6'1         2.0640    -0.5760    -0.2340 ha         1 FL8       0.144000
     28 H4'O         1.1480     0.4510    -4.5050 ho         1 FL8       0.490000
     29 H3'1        -2.0600    -3.1020     1.4760 hc         1 FL8       0.049367
     30 H3'2        -2.9350    -1.6570     0.9450 hc         1 FL8       0.049367
     31 H3'3        -1.5540    -2.2700     0.0190 hc         1 FL8       0.049367
     32 HO61         0.5950     1.5900     7.8890 ho         1 FL8       0.467000
@<TRIPOS>BOND
     1     1    15 1   
     2     2    17 1   
     3     3     4 1   
     4     3    12 1   
     5     4     5 2   
     6     4    13 1   
     7     5     6 1   
     8     5    20 1   
     9     6     7 1   
    10     6    21 2   
    11     7     8 ar  
    12     7    12 ar  
    13     8     9 ar  
    14     8    23 1   
    15     9    10 ar  
    16     9    22 1   
    17    10    11 ar  
    18    10    24 1   
    19    11    12 ar  
    20    11    25 1   
    21    13    14 ar  
    22    13    18 ar  
    23    14    15 ar  
    24    14    26 1   
    25    15    16 ar  
    26    16    17 ar  
    27    16    19 1   
    28    17    18 ar  
    29    18    27 1   
    30    19    28 1   
    31    20    29 1   
    32    20    30 1   
    33    20    31 1   
    34    22    32 1   
@<TRIPOS>SUBSTRUCTURE
     1 FL8         1 TEMP              0 ****  ****    0 ROOT
