@<TRIPOS>MOLECULE
FL8
   32    34     1     0     0
SMALL
bcc


@<TRIPOS>ATOM
      1 BR3         -2.4280     0.5550    -3.5010 br         1 FL8      -0.069100
      2 BR5          3.1480     0.1920    -2.6030 br         1 FL8      -0.069100
      3 O1           0.4590     0.5290     2.0400 os         1 FL8      -0.211200
      4 C2          -0.3710    -0.2500     1.3310 cc         1 FL8       0.194900
      5 C3          -1.2750    -1.0840     1.8990 cd         1 FL8      -0.265400
      6 C4          -1.4190    -1.1010     3.3500 c          1 FL8       0.590900
      7 C4A         -0.4830    -0.2500     4.0920 ca         1 FL8      -0.187600
      8 C5          -0.4820    -0.2110     5.4880 ca         1 FL8      -0.083000
      9 C6           0.4230     0.5870     6.1610 ca         1 FL8       0.108100
     10 C7           1.3410     1.3580     5.4310 ca         1 FL8      -0.169000
     11 C8           1.3480     1.3300     4.0550 ca         1 FL8      -0.116000
     12 C8A          0.4310     0.5220     3.3900 ca         1 FL8       0.112100
     13 C1          -0.1420    -0.0680    -0.1110 ca         1 FL8      -0.108800
     14 C9          -1.2090     0.1070    -0.9870 ca         1 FL8      -0.013500
     15 C10         -0.9760     0.3080    -2.3340 ca         1 FL8      -0.107900
     16 C11          0.3190     0.3440    -2.8610 ca         1 FL8       0.218100
     17 C12          1.3760     0.1690    -1.9600 ca         1 FL8      -0.107900
     18 C13          1.1560    -0.0230    -0.6080 ca         1 FL8      -0.013500
     19 O4           0.4550     0.5410    -4.1670 oh         1 FL8      -0.462100
     20 C3B         -2.1400    -2.0220     1.1150 c3         1 FL8      -0.031900
     21 O2          -2.2550    -1.7920     3.9170 o          1 FL8      -0.533100
     22 O6           0.3930     0.5940     7.5060 oh         1 FL8      -0.488100
     23 H51         -1.1940    -0.8110     6.0400 ha         1 FL8       0.173000
     24 H71          2.0570     1.9840     5.9510 ha         1 FL8       0.138000
     25 H81          2.0570     1.9260     3.4950 ha         1 FL8       0.153000
     26 H2'1        -2.2240     0.1110    -0.6130 ha         1 FL8       0.162000
     27 H6'1         2.0000    -0.1550     0.0560 ha         1 FL8       0.162000
     28 H4'O         1.3800     0.5900    -4.4430 ho         1 FL8       0.451000
     29 H3'1        -2.2290    -2.9730     1.6390 hc         1 FL8       0.049367
     30 H3'2        -3.1530    -1.6330     0.9930 hc         1 FL8       0.049367
     31 H3'3        -1.7380    -2.2250     0.1260 hc         1 FL8       0.049367
     32 HO61         1.0750     1.1770     7.8590 ho         1 FL8       0.428000
@<TRIPOS>BOND
     1     1    15 1   
     2     2    17 1   
     3     3     4 1   
     4     3    12 1   
     5     4     5 2   
     6     4    13 1   
     7     5     6 1   
     8     5    20 1   
     9     6     7 1   
    10     6    21 2   
    11     7     8 ar  
    12     7    12 ar  
    13     8     9 ar  
    14     8    23 1   
    15     9    10 ar  
    16     9    22 1   
    17    10    11 ar  
    18    10    24 1   
    19    11    12 ar  
    20    11    25 1   
    21    13    14 ar  
    22    13    18 ar  
    23    14    15 ar  
    24    14    26 1   
    25    15    16 ar  
    26    16    17 ar  
    27    16    19 1   
    28    17    18 ar  
    29    18    27 1   
    30    19    28 1   
    31    20    29 1   
    32    20    30 1   
    33    20    31 1   
    34    22    32 1   
@<TRIPOS>SUBSTRUCTURE
     1 FL8         1 TEMP              0 ****  ****    0 ROOT
