@<TRIPOS>MOLECULE
FL9
   31    33     1     0     0
SMALL
bcc


@<TRIPOS>ATOM
      1 C2          -1.0620    -0.0860     1.8780 cc         1 FL9      -0.063100
      2 C3          -1.9200    -0.0790     3.0910 c          1 FL9       0.598900
      3 C3A         -0.9740     0.0310     4.1690 ca         1 FL9      -0.414600
      4 C4          -1.1280     0.0830     5.5580 ca         1 FL9       0.302100
      5 C5           0.0120     0.1890     6.3420 ca         1 FL9      -0.328000
      6 C6           1.2750     0.2400     5.7380 ca         1 FL9       0.244100
      7 C7           1.4510     0.1880     4.3470 ca         1 FL9      -0.239000
      8 C7A          0.3010     0.0830     3.6110 ca         1 FL9       0.227100
      9 C21         -1.4960    -0.1740     0.6160 cf         1 FL9      -0.022200
     10 C1          -0.7520    -0.1950    -0.6280 ca         1 FL9      -0.141800
     11 C8          -1.4680    -0.2380    -1.8430 ca         1 FL9       0.252100
     12 C9          -0.7730    -0.2640    -3.0540 ca         1 FL9      -0.240900
     13 C10          0.6240    -0.2560    -3.1050 ca         1 FL9       0.258100
     14 C11          1.3150    -0.2160    -1.8910 ca         1 FL9      -0.117900
     15 C12          0.6440    -0.1850    -0.6890 ca         1 FL9       0.014000
     16 BR1         -1.7420    -0.3030    -4.6730 br         1 FL9      -0.092100
     17 BR2          3.1960    -0.2080    -1.9180 br         1 FL9      -0.060100
     18 O1           0.2520     0.0150     2.2570 os         1 FL9      -0.209200
     19 O3          -3.1390    -0.1520     3.1310 o          1 FL9      -0.540100
     20 O4          -2.3230     0.0350     6.1420 oh         1 FL9      -0.480100
     21 O6           2.3850     0.3440     6.4700 oh         1 FL9      -0.480100
     22 O2          -2.7960    -0.2460    -1.7610 oh         1 FL9      -0.480100
     23 O5           1.3380    -0.2810    -4.2220 oh         1 FL9      -0.461100
     24 H5          -0.0780     0.2310     7.4210 ha         1 FL9       0.155000
     25 H7           2.4360     0.2280     3.9010 ha         1 FL9       0.173000
     26 H21         -2.5750    -0.2370     0.5450 ha         1 FL9       0.170000
     27 H6           1.2210    -0.1570     0.2220 ha         1 FL9       0.172000
     28 HO4         -3.0250    -0.0370     5.4810 ho         1 FL9       0.462000
     29 HO6          2.1790     0.3660     7.4120 ho         1 FL9       0.438000
     30 HO2         -3.2340    -0.3450    -2.6160 ho         1 FL9       0.452000
     31 H1           0.7970    -0.3130    -5.0220 ho         1 FL9       0.450000
@<TRIPOS>BOND
     1     1     2 1   
     2     1     9 2   
     3     1    18 1   
     4     2     3 1   
     5     2    19 2   
     6     3     4 ar  
     7     3     8 ar  
     8     4     5 ar  
     9     4    20 1   
    10     5     6 ar  
    11     5    24 1   
    12     6     7 ar  
    13     6    21 1   
    14     7     8 ar  
    15     7    25 1   
    16     8    18 1   
    17     9    10 1   
    18     9    26 1   
    19    10    11 ar  
    20    10    15 ar  
    21    11    12 ar  
    22    11    22 1   
    23    12    13 ar  
    24    12    16 1   
    25    13    14 ar  
    26    13    23 1   
    27    14    15 ar  
    28    14    17 1   
    29    15    27 1   
    30    20    28 1   
    31    21    29 1   
    32    22    30 1   
    33    23    31 1   
@<TRIPOS>SUBSTRUCTURE
     1 FL9         1 TEMP              0 ****  ****    0 ROOT
