@<TRIPOS>MOLECULE
FL9
   31    33     1     0     0
SMALL
No Charge or Current Charge


@<TRIPOS>ATOM
      1 C2          -0.9380    -0.0670     1.9390 cc         1 FL9      -0.063100
      2 C3          -1.8350    -0.0450     3.1150 c          1 FL9       0.598900
      3 C3A         -0.9100     0.0450     4.2230 ca         1 FL9      -0.414600
      4 C4          -1.1400     0.1020     5.5890 ca         1 FL9       0.302100
      5 C5          -0.0330     0.1860     6.4440 ca         1 FL9      -0.310000
      6 C6           1.2690     0.2110     5.9070 ca         1 FL9       0.244100
      7 C7           1.4740     0.1520     4.5180 ca         1 FL9      -0.221000
      8 C7A          0.3560     0.0680     3.6860 ca         1 FL9       0.227100
      9 C21         -1.3810    -0.1470     0.6430 cf         1 FL9      -0.072200
     10 C1          -0.7050    -0.1850    -0.6840 ca         1 FL9      -0.141800
     11 C8          -1.4630    -0.2720    -1.8780 ca         1 FL9       0.252100
     12 C9          -0.8320    -0.3090    -3.1360 ca         1 FL9      -0.240900
     13 C10          0.5680    -0.2580    -3.2150 ca         1 FL9       0.258100
     14 C11          1.3340    -0.1720    -2.0410 ca         1 FL9      -0.117900
     15 C12          0.7030    -0.1350    -0.7870 ca         1 FL9       0.032000
     16 Br1         -1.8860    -0.4280    -4.7480 br         1 FL9      -0.092100
     17 Br2          3.2520    -0.1010    -2.1170 br         1 FL9      -0.060100
     18 O1           0.4000     0.0030     2.3060 os         1 FL9      -0.209200
     19 O3          -3.0560    -0.0890     3.1880 o          1 FL9      -0.540100
     20 O4          -2.4010     0.0770     6.0810 oh         1 FL9      -0.519100
     21 O6           2.3420     0.2930     6.7380 oh         1 FL9      -0.519100
     22 O2          -2.8240    -0.3230    -1.8340 oh         1 FL9      -0.519100
     23 O5           1.1770    -0.2940    -4.4330 oh         1 FL9      -0.500100
     24 H5          -0.1930     0.2320     7.5170 ha         1 FL9       0.137000
     25 H7           2.4760     0.1700     4.1000 ha         1 FL9       0.155000
     26 H21         -2.4710    -0.1920     0.5930 ha         1 FL9       0.220000
     27 H6           1.3270    -0.0680     0.0970 ha         1 FL9       0.154000
     28 HO4         -3.0040     0.0160     5.3070 ho         1 FL9       0.501000
     29 HO6          2.0070     0.3250     7.6580 ho         1 FL9       0.477000
     30 HO2         -3.1390    -0.3800    -2.7610 ho         1 FL9       0.491000
     31 H1           0.4670    -0.3540    -5.1060 ho         1 FL9       0.489000
@<TRIPOS>BOND
     1     1     2 1   
     2     1     9 2   
     3     1    18 1   
     4     2     3 1   
     5     2    19 2   
     6     3     4 ar  
     7     3     8 ar  
     8     4     5 ar  
     9     4    20 1   
    10     5     6 ar  
    11     5    24 1   
    12     6     7 ar  
    13     6    21 1   
    14     7     8 ar  
    15     7    25 1   
    16     8    18 1   
    17     9    10 1   
    18     9    26 1   
    19    10    11 ar  
    20    10    15 ar  
    21    11    12 ar  
    22    11    22 1   
    23    12    13 ar  
    24    12    16 1   
    25    13    14 ar  
    26    13    23 1   
    27    14    15 ar  
    28    14    17 1   
    29    15    27 1   
    30    20    28 1   
    31    21    29 1   
    32    22    30 1   
    33    23    31 1   
@<TRIPOS>SUBSTRUCTURE
     1 FL9         1 TEMP              0 ****  ****    0 ROOT
