@<TRIPOS>MOLECULE
FLA
   12    11     1     0     0
SMALL
bcc


@<TRIPOS>ATOM
      1 N           32.4470   124.3830    23.5050 n8         1 FLA      -0.896800
      2 CA          33.4580   125.0010    22.6780 c3         1 FLA      -0.054500
      3 C           34.6890   125.4770    23.5260 c          1 FLA       0.939600
      4 O           34.4850   125.5920    24.7460 o          1 FLA      -0.808800
      5 CB          33.8710   124.0110    21.6060 c3         1 FLA       0.673900
      6 OXT         35.7270   125.7280    22.8960 o          1 FLA      -0.808800
      7 F1          34.5840   124.5580    20.6120 f          1 FLA      -0.258300
      8 F2          32.8010   123.4480    21.0090 f          1 FLA      -0.258300
      9 F3          34.5890   122.9900    22.1020 f          1 FLA      -0.258300
     10 H           31.5210   124.6790    23.2330 hn         1 FLA       0.347800
     11 H2          32.6070   124.7000    24.4530 hn         1 FLA       0.347800
     12 HA          33.0910   125.8930    22.1480 h1         1 FLA       0.033700
@<TRIPOS>BOND
     1     1     2 1   
     2     1    10 1   
     3     1    11 1   
     4     2     3 1   
     5     2     5 1   
     6     2    12 1   
     7     3     4 1   
     8     3     6 1   
     9     5     7 1   
    10     5     8 1   
    11     5     9 1   
@<TRIPOS>SUBSTRUCTURE
     1 FLA         1 TEMP              0 ****  ****    0 ROOT
