@<TRIPOS>MOLECULE
FLA
   12    11     1     0     0
SMALL
No Charge or Current Charge


@<TRIPOS>ATOM
      1 N           32.3350   124.5790    23.6950 n8         1 FLA      -0.896800
      2 CA          33.4970   124.9600    22.7490 c3         1 FLA      -0.054500
      3 C           34.8470   125.4220    23.3930 c          1 FLA       0.939600
      4 O           35.3300   124.7620    24.3080 o          1 FLA      -0.808800
      5 CB          33.8880   123.9020    21.6750 c3         1 FLA       0.673900
      6 OXT         35.2690   126.5380    23.1040 o          1 FLA      -0.808800
      7 F1          34.8290   124.3750    20.8220 f          1 FLA      -0.258300
      8 F2          32.8090   123.5630    20.9280 f          1 FLA      -0.258300
      9 F3          34.3690   122.7620    22.2280 f          1 FLA      -0.258300
     10 H           31.4900   124.3810    23.1470 hn         1 FLA       0.347800
     11 H2          32.0800   125.3860    24.2770 hn         1 FLA       0.347800
     12 HA          33.1280   125.8290    22.1870 h1         1 FLA       0.033700
@<TRIPOS>BOND
     1     1     2 1   
     2     1    10 1   
     3     1    11 1   
     4     2     3 1   
     5     2     5 1   
     6     2    12 1   
     7     3     4 1   
     8     3     6 1   
     9     5     7 1   
    10     5     8 1   
    11     5     9 1   
@<TRIPOS>SUBSTRUCTURE
     1 FLA         1 TEMP              0 ****  ****    0 ROOT
