@<TRIPOS>MOLECULE
FLB
   32    32     1     0     0
SMALL
No Charge or Current Charge


@<TRIPOS>ATOM
      1 C1          -6.5410    -1.1400     1.3670 c3         1 FLB      -0.092100
      2 C2          -6.1360    -0.4690     0.0460 c3         1 FLB       0.161600
      3 C3          -4.2530     0.6580    -0.9740 c3         1 FLB       0.161600
      4 C6           0.1110    -1.2100    -0.3460 ca         1 FLB      -0.105000
      5 C5          -0.6070    -0.0050    -0.3800 ca         1 FLB       0.144100
      6 C7           1.5000    -1.2180    -0.0910 ca         1 FLB      -0.163800
      7 C4          -2.8010     1.0990    -0.6820 c3         1 FLB       0.161600
      8 C10          0.0680     1.2170    -0.1670 ca         1 FLB      -0.105000
      9 C8           2.1640     0.0100     0.1110 ca         1 FLB      -0.059000
     10 C9           1.4600     1.2330     0.0700 ca         1 FLB      -0.163800
     11 O1          -4.7870    -0.0000     0.1930 os         1 FLB      -0.450000
     12 O2          -1.9640    -0.0750    -0.6250 os         1 FLB      -0.329100
     13 F6           2.1980     2.8920     1.6160 f          1 FLB      -0.109833
     14 C12          2.1940     2.5600     0.3060 c3         1 FLB       0.358300
     15 F4           3.4860     2.5140    -0.0930 f          1 FLB      -0.109833
     16 F5           1.6230     3.5900    -0.3610 f          1 FLB      -0.109833
     17 C11          2.2880    -2.5340    -0.0560 c3         1 FLB       0.358300
     18 F3           1.5040    -3.6060     0.2030 f          1 FLB      -0.109833
     19 F2           2.9020    -2.7700    -1.2370 f          1 FLB      -0.109833
     20 F1           3.2510    -2.5240     0.8950 f          1 FLB      -0.109833
     21 H1          -6.4880    -0.4240     2.1960 hc         1 FLB       0.045033
     22 H2          -7.5690    -1.5150     1.3020 hc         1 FLB       0.045033
     23 H3          -5.8790    -1.9850     1.5900 hc         1 FLB       0.045033
     24 H4          -6.2090    -1.1970    -0.7730 h1         1 FLB       0.020200
     25 H5          -6.8170     0.3660    -0.1660 h1         1 FLB       0.020200
     26 H6          -4.8510     1.5470    -1.2170 h1         1 FLB       0.035700
     27 H7          -4.2650    -0.0100    -1.8450 h1         1 FLB       0.035700
     28 H8          -0.4250    -2.1400    -0.5180 ha         1 FLB       0.145000
     29 H9          -2.4670     1.7680    -1.4850 h1         1 FLB       0.048700
     30 H10         -2.7720     1.6510     0.2660 h1         1 FLB       0.048700
     31 H11         -0.4770     2.1570    -0.1830 ha         1 FLB       0.145000
     32 H12          3.2360     0.0120     0.3020 ha         1 FLB       0.145000
@<TRIPOS>BOND
     1     1     2 1   
     2     1    21 1   
     3     1    22 1   
     4     1    23 1   
     5     2    11 1   
     6     2    24 1   
     7     2    25 1   
     8     3     7 1   
     9     3    11 1   
    10     3    26 1   
    11     3    27 1   
    12     4     5 ar  
    13     4     6 ar  
    14     4    28 1   
    15     5     8 ar  
    16     5    12 1   
    17     6     9 ar  
    18     6    17 1   
    19     7    12 1   
    20     7    29 1   
    21     7    30 1   
    22     8    10 ar  
    23     8    31 1   
    24     9    10 ar  
    25     9    32 1   
    26    10    14 1   
    27    13    14 1   
    28    14    15 1   
    29    14    16 1   
    30    17    18 1   
    31    17    19 1   
    32    17    20 1   
@<TRIPOS>SUBSTRUCTURE
     1 FLB         1 TEMP              0 ****  ****    0 ROOT
