@<TRIPOS>MOLECULE
FLB
   32    32     1     0     0
SMALL
abcg2


@<TRIPOS>ATOM
      1 C1          -6.5590    -1.0580     1.3140 c3         1 FLB      -0.092100
      2 C2          -6.0410    -0.4550     0.0290 c3         1 FLB       0.161600
      3 C3          -4.1710     0.5970    -0.9140 c3         1 FLB       0.161600
      4 C6           0.0870    -1.2160    -0.2580 ca         1 FLB      -0.105000
      5 C5          -0.6410    -0.0250    -0.2960 ca         1 FLB       0.144100
      6 C7           1.4540    -1.1790    -0.0710 ca         1 FLB      -0.163800
      7 C4          -2.7530     1.0180    -0.6360 c3         1 FLB       0.161600
      8 C10          0.0160     1.1920    -0.1430 ca         1 FLB      -0.105000
      9 C8           2.1250     0.0300     0.0830 ca         1 FLB      -0.059000
     10 C9           1.3920     1.2040     0.0460 ca         1 FLB      -0.163800
     11 O1          -4.7070    -0.0340     0.2170 os         1 FLB      -0.450000
     12 O2          -1.9600    -0.1510    -0.4850 os         1 FLB      -0.329100
     13 F6           2.6720     2.5780     1.4520 f          1 FLB      -0.109833
     14 C12          2.1250     2.4990     0.2320 c3         1 FLB       0.358300
     15 F4           3.1270     2.6260    -0.6470 f          1 FLB      -0.109833
     16 F5           1.3360     3.5650     0.0850 f          1 FLB      -0.109833
     17 C11          2.2590    -2.4430    -0.0360 c3         1 FLB       0.358300
     18 F3           1.5080    -3.5370    -0.1780 f          1 FLB      -0.109833
     19 F2           3.1760    -2.4650    -1.0120 f          1 FLB      -0.109833
     20 F1           2.9260    -2.5670     1.1180 f          1 FLB      -0.109833
     21 H1          -6.5490    -0.3320     2.1280 hc         1 FLB       0.045033
     22 H2          -7.5870    -1.3920     1.1760 hc         1 FLB       0.045033
     23 H3          -5.9660    -1.9220     1.6170 hc         1 FLB       0.045033
     24 H4          -6.0990    -1.1920    -0.7840 h1         1 FLB       0.020200
     25 H5          -6.6700     0.3940    -0.2700 h1         1 FLB       0.020200
     26 H6          -4.7400     1.5000    -1.1760 h1         1 FLB       0.035700
     27 H7          -4.1970    -0.0610    -1.7940 h1         1 FLB       0.035700
     28 H8          -0.4440    -2.1500    -0.3840 ha         1 FLB       0.145000
     29 H9          -2.3940     1.6200    -1.4760 h1         1 FLB       0.048700
     30 H10         -2.7080     1.6340     0.2690 h1         1 FLB       0.048700
     31 H11         -0.5360     2.1210    -0.1680 ha         1 FLB       0.145000
     32 H12          3.1970     0.0520     0.2280 ha         1 FLB       0.145000
@<TRIPOS>BOND
     1     1     2 1   
     2     1    21 1   
     3     1    22 1   
     4     1    23 1   
     5     2    11 1   
     6     2    24 1   
     7     2    25 1   
     8     3     7 1   
     9     3    11 1   
    10     3    26 1   
    11     3    27 1   
    12     4     5 ar  
    13     4     6 ar  
    14     4    28 1   
    15     5     8 ar  
    16     5    12 1   
    17     6     9 ar  
    18     6    17 1   
    19     7    12 1   
    20     7    29 1   
    21     7    30 1   
    22     8    10 ar  
    23     8    31 1   
    24     9    10 ar  
    25     9    32 1   
    26    10    14 1   
    27    13    14 1   
    28    14    15 1   
    29    14    16 1   
    30    17    18 1   
    31    17    19 1   
    32    17    20 1   
@<TRIPOS>SUBSTRUCTURE
     1 FLB         1 TEMP              0 ****  ****    0 ROOT
