@<TRIPOS>MOLECULE
FLC
   18    17     1     0     0
SMALL
No Charge or Current Charge


@<TRIPOS>ATOM
      1 CAC         -2.5050     0.6060    -0.0040 c          1 FLC       0.716000
      2 CA          -1.2100     1.0750    -0.6970 c3         1 FLC      -0.198400
      3 CB           0.0390     0.4700     0.0210 c3         1 FLC       0.087000
      4 CBC         -0.0190    -1.1370    -0.0400 c          1 FLC       0.800000
      5 CG           1.3470     1.0020    -0.6550 c3         1 FLC      -0.198400
      6 CGC          2.6150     0.4550     0.0410 c          1 FLC       0.716000
      7 OA1         -3.0950    -0.3630    -0.4540 o          1 FLC      -0.776500
      8 OA2         -2.8550     1.1940     1.0080 o          1 FLC      -0.776500
      9 OB1         -0.0770    -1.7750     1.0080 o          1 FLC      -0.767000
     10 OB2         -0.0250    -1.6960    -1.1350 o          1 FLC      -0.767000
     11 OG1          3.0720    -0.6110    -0.3410 o          1 FLC      -0.776500
     12 OG2          3.1510     1.1320     0.9070 o          1 FLC      -0.776500
     13 OHB         -0.0030     0.9990     1.3730 oh         1 FLC      -0.630000
     14 HA1         -1.1110     2.1650    -0.5980 hc         1 FLC      -0.004550
     15 HA2         -1.1840     0.7410    -1.7420 hc         1 FLC      -0.004550
     16 HG1          1.3070     0.6430    -1.6910 hc         1 FLC      -0.004550
     17 HG2          1.3170     2.0980    -0.5830 hc         1 FLC      -0.004550
     18 HOB         -0.9600     1.0980     1.5820 ho         1 FLC       0.366000
@<TRIPOS>BOND
     1     1     2 1   
     2     1     7 1   
     3     1     8 1   
     4     2     3 1   
     5     2    14 1   
     6     2    15 1   
     7     3     4 1   
     8     3     5 1   
     9     3    13 1   
    10     4     9 1   
    11     4    10 1   
    12     5     6 1   
    13     5    16 1   
    14     5    17 1   
    15     6    11 1   
    16     6    12 1   
    17    13    18 1   
@<TRIPOS>SUBSTRUCTURE
     1 FLC         1 TEMP              0 ****  ****    0 ROOT
