@<TRIPOS>MOLECULE
FLC
   18    17     1     0     0
SMALL
bcc


@<TRIPOS>ATOM
      1 CAC         -2.6150     0.5400    -0.0320 c          1 FLC       0.926600
      2 CA          -1.2400     0.9840    -0.5480 c3         1 FLC      -0.198400
      3 CB          -0.0170     0.3020     0.0800 c3         1 FLC       0.063800
      4 CBC          0.0180    -1.1990    -0.2820 c          1 FLC       1.010600
      5 CG           1.2240     1.0220    -0.4560 c3         1 FLC      -0.198400
      6 CGC          2.5960     0.5940     0.0780 c          1 FLC       0.926600
      7 OA1         -2.8370    -0.6840     0.0480 o          1 FLC      -0.881800
      8 OA2         -3.4330     1.4500     0.2310 o          1 FLC      -0.881800
      9 OB1         -0.0480    -2.0390     0.6280 o          1 FLC      -0.872300
     10 OB2          0.0930    -1.4430    -1.5080 o          1 FLC      -0.872300
     11 OG1          2.7900    -0.6150     0.3060 o          1 FLC      -0.881800
     12 OG2          3.4540     1.5020     0.1660 o          1 FLC      -0.881800
     13 OHB         -0.0740     0.4300     1.4930 oh         1 FLC      -0.567800
     14 HA1         -1.1440     2.0680    -0.4190 hc         1 FLC      -0.004550
     15 HA2         -1.2130     0.8100    -1.6280 hc         1 FLC      -0.004550
     16 HG1          1.2420     0.9020    -1.5450 hc         1 FLC      -0.004550
     17 HG2          1.1060     2.1000    -0.2970 hc         1 FLC      -0.004550
     18 HOB         -0.0990     1.3730     1.6880 ho         1 FLC       0.327000
@<TRIPOS>BOND
     1     1     2 1   
     2     1     7 1   
     3     1     8 1   
     4     2     3 1   
     5     2    14 1   
     6     2    15 1   
     7     3     4 1   
     8     3     5 1   
     9     3    13 1   
    10     4     9 1   
    11     4    10 1   
    12     5     6 1   
    13     5    16 1   
    14     5    17 1   
    15     6    11 1   
    16     6    12 1   
    17    13    18 1   
@<TRIPOS>SUBSTRUCTURE
     1 FLC         1 TEMP              0 ****  ****    0 ROOT
