@<TRIPOS>MOLECULE
FLD
   98   105     1     0     0
SMALL
bcc


@<TRIPOS>ATOM
      1 C1           8.5110    -1.0380    -0.4850 ca         1 FLD      -0.005300
      2 N2           8.0170    -2.2640    -0.6010 na         1 FLD       0.008900
      3 C3           8.6650    -3.3460    -0.0970 ca         1 FLD      -0.127300
      4 C4           9.8550    -3.1890     0.5420 ca         1 FLD      -0.063500
      5 C5          11.6650    -1.7260     1.3500 ca         1 FLD      -0.121500
      6 C6          12.2060    -0.4800     1.4860 ca         1 FLD      -0.016000
      7 N7          11.8730     1.9280     0.9930 na         1 FLD      -0.109800
      8 C8          10.8650     4.0530     0.1600 ca         1 FLD      -0.078000
      9 C9           9.7770     4.5760    -0.5110 ca         1 FLD      -0.145500
     10 C10          8.7420     3.7430    -0.9740 ca         1 FLD       0.159100
     11 O10          7.6580     4.2000    -1.6350 os         1 FLD      -0.328400
     12 C11          8.7940     2.3730    -0.7660 ca         1 FLD      -0.162000
     13 C12         10.4250    -1.9120     0.6920 ca         1 FLD       0.016000
     14 C13         11.5090     0.6240     0.9600 ca         1 FLD      -0.000200
     15 C14         10.9140     2.6810     0.3660 ca         1 FLD      -0.036200
     16 C15          9.8880     1.8270    -0.0910 cp         1 FLD      -0.053000
     17 C16         10.2800     0.5010     0.2970 cp         1 FLD      -0.091500
     18 C17          9.7220    -0.7930     0.1570 ca         1 FLD      -0.002000
     19 C18          7.5300     5.5900    -1.8570 c3         1 FLD       0.115700
     20 C19          6.7200    -2.4560    -1.2520 c3         1 FLD      -0.013200
     21 C20          5.6180    -2.4590    -0.2020 c3         1 FLD       0.094800
     22 N21          4.2960    -2.5790    -0.8580 ny         1 FLD      -0.765500
     23 C22          3.1550    -2.5820     0.1040 c3         1 FLD       0.124800
     24 C23          1.8300    -2.6460    -0.6280 c3         1 FLD      -0.106400
     25 C24          0.6670    -2.6450     0.3570 c3         1 FLD      -0.069400
     26 C1X         -8.5290    -1.0370     0.4890 ca         1 FLD      -0.005300
     27 N2X         -8.0330    -2.2610     0.6150 na         1 FLD       0.008900
     28 C3X         -8.6810    -3.3500     0.1240 ca         1 FLD      -0.127300
     29 C4X         -9.8740    -3.2010    -0.5100 ca         1 FLD      -0.063500
     30 C5X        -11.6910    -1.7490    -1.3230 ca         1 FLD      -0.121500
     31 C6X        -12.2340    -0.5060    -1.4700 ca         1 FLD      -0.016000
     32 N7X        -11.9020     1.9070    -1.0050 na         1 FLD      -0.109800
     33 C8X        -10.8930     4.0430    -0.2020 ca         1 FLD      -0.078000
     34 C9X         -9.8020     4.5750     0.4580 ca         1 FLD      -0.145500
     35 CAX         -8.7650     3.7480     0.9260 ca         1 FLD       0.159100
     36 OAX         -7.6770     4.2160     1.5740 os         1 FLD      -0.328400
     37 CBX         -8.8160     2.3760     0.7340 ca         1 FLD      -0.162000
     38 CCX        -10.4470    -1.9270    -0.6700 ca         1 FLD       0.016000
     39 CDX        -11.5360     0.6050    -0.9590 ca         1 FLD      -0.000200
     40 CEX        -10.9410     2.6690    -0.3920 ca         1 FLD      -0.036200
     41 CFX         -9.9120     1.8210     0.0700 cp         1 FLD      -0.053000
     42 CGX        -10.3040     0.4900    -0.3010 cp         1 FLD      -0.091500
     43 CHX         -9.7430    -0.8010    -0.1500 ca         1 FLD      -0.002000
     44 CIX         -7.5620     5.6050     1.8040 c3         1 FLD       0.115700
     45 CJX         -6.7330    -2.4450     1.2640 c3         1 FLD      -0.013200
     46 CKX         -5.6340    -2.4520     0.2110 c3         1 FLD       0.094800
     47 NLX         -4.3110    -2.5720     0.8660 ny         1 FLD      -0.765500
     48 CMX         -3.1700    -2.5750    -0.0970 c3         1 FLD       0.124800
     49 CNX         -1.8450    -2.6440     0.6340 c3         1 FLD      -0.106400
     50 COX         -0.6820    -2.6430    -0.3500 c3         1 FLD      -0.069400
     51 H1           7.9230    -0.2490    -0.9280 h4         1 FLD       0.186000
     52 H3           8.1950    -4.3060    -0.2430 h4         1 FLD       0.185000
     53 H4          10.3580    -4.0630     0.9290 ha         1 FLD       0.199000
     54 H5          12.1820    -2.5900     1.7450 ha         1 FLD       0.179000
     55 H6          13.1530    -0.3400     1.9900 ha         1 FLD       0.184000
     56 HN7         12.7160     2.2860     1.4110 hn         1 FLD       0.339700
     57 H8          11.6550     4.7030     0.5120 ha         1 FLD       0.170000
     58 H9           9.7380     5.6440    -0.6720 ha         1 FLD       0.169000
     59 H11          7.9800     1.7660    -1.1380 ha         1 FLD       0.117000
     60 H181         8.3380     5.9830    -2.4790 h1         1 FLD       0.058367
     61 H182         6.5880     5.7320    -2.3810 h1         1 FLD       0.058367
     62 H183         7.4980     6.1550    -0.9210 h1         1 FLD       0.058367
     63 H191         6.5780    -1.6510    -1.9700 h1         1 FLD       0.107700
     64 H192         6.7500    -3.3950    -1.8020 h1         1 FLD       0.107700
     65 H201         5.7200    -3.2960     0.4860 hx         1 FLD       0.122450
     66 H202         5.6140    -1.5300     0.3670 hx         1 FLD       0.122450
     67 HN21         4.1690    -1.8080    -1.5180 hn         1 FLD       0.457300
     68 HN22         4.2600    -3.4330    -1.4190 hn         1 FLD       0.457300
     69 H221         3.2990    -3.4400     0.7590 hx         1 FLD       0.110700
     70 H222         3.2420    -1.6720     0.6960 hx         1 FLD       0.110700
     71 H231         1.7410    -1.7880    -1.3010 hc         1 FLD       0.073200
     72 H232         1.7900    -3.5470    -1.2460 hc         1 FLD       0.073200
     73 H241         0.7400    -3.5190     1.0110 hc         1 FLD       0.065200
     74 H242         0.7370    -1.7650     1.0050 hc         1 FLD       0.065200
     75 H3X         -8.2080    -4.3070     0.2780 h4         1 FLD       0.185000
     76 H4X        -10.3780    -4.0800    -0.8860 ha         1 FLD       0.199000
     77 H5X        -12.2080    -2.6180    -1.7080 ha         1 FLD       0.179000
     78 H6X        -13.1840    -0.3730    -1.9710 ha         1 FLD       0.184000
     79 HN7X       -12.7460     2.2610    -1.4270 hn         1 FLD       0.339700
     80 H8X        -11.6860     4.6880    -0.5570 ha         1 FLD       0.170000
     81 H9X         -9.7650     5.6460     0.6070 ha         1 FLD       0.169000
     82 H11X        -7.9990     1.7750     1.1100 ha         1 FLD       0.117000
     83 HX81        -7.5390     6.1760     0.8710 h1         1 FLD       0.058367
     84 HX82        -8.3740     5.9860     2.4290 h1         1 FLD       0.058367
     85 HX83        -6.6210     5.7540     2.3260 h1         1 FLD       0.058367
     86 HX91        -6.7600    -3.3800     1.8210 h1         1 FLD       0.107700
     87 HX92        -6.5910    -1.6340     1.9750 h1         1 FLD       0.107700
     88 HX01        -5.6290    -1.5260    -0.3600 hx         1 FLD       0.122450
     89 HX02        -5.7370    -3.2920    -0.4740 hx         1 FLD       0.122450
     90 HN1X        -4.2740    -3.4260     1.4270 hn         1 FLD       0.457300
     91 HN2X        -4.1830    -1.8010     1.5260 hn         1 FLD       0.457300
     92 HX21        -3.2560    -1.6630    -0.6870 hx         1 FLD       0.110700
     93 HX22        -3.3160    -3.4310    -0.7540 hx         1 FLD       0.110700
     94 HX31        -1.8060    -3.5470     1.2500 hc         1 FLD       0.073200
     95 HX32        -1.7540    -1.7890     1.3100 hc         1 FLD       0.073200
     96 HX41        -0.7520    -1.7630    -0.9970 hc         1 FLD       0.065200
     97 HX42        -0.7560    -3.5170    -1.0050 hc         1 FLD       0.065200
     98 H1X         -7.9400    -0.2430     0.9210 h4         1 FLD       0.186000
@<TRIPOS>BOND
     1     1     2 1   
     2     1    18 ar  
     3     1    51 1   
     4     2     3 2   
     5     2    20 1   
     6     3     4 ar  
     7     3    52 1   
     8     4    13 ar  
     9     4    53 1   
    10     5     6 ar  
    11     5    13 ar  
    12     5    54 1   
    13     6    14 ar  
    14     6    55 1   
    15     7    14 1   
    16     7    15 1   
    17     7    56 1   
    18     8     9 ar  
    19     8    15 ar  
    20     8    57 1   
    21     9    10 ar  
    22     9    58 1   
    23    10    11 1   
    24    10    12 ar  
    25    11    19 1   
    26    12    16 ar  
    27    12    59 1   
    28    13    18 ar  
    29    14    17 ar  
    30    15    16 ar  
    31    16    17 1   
    32    17    18 ar  
    33    19    60 1   
    34    19    61 1   
    35    19    62 1   
    36    20    21 1   
    37    20    63 1   
    38    20    64 1   
    39    21    22 1   
    40    21    65 1   
    41    21    66 1   
    42    22    23 1   
    43    22    67 1   
    44    22    68 1   
    45    23    24 1   
    46    23    69 1   
    47    23    70 1   
    48    24    25 1   
    49    24    71 1   
    50    24    72 1   
    51    25    50 1   
    52    25    73 1   
    53    25    74 1   
    54    26    27 1   
    55    26    43 ar  
    56    26    98 1   
    57    27    28 2   
    58    27    45 1   
    59    28    29 ar  
    60    28    75 1   
    61    29    38 ar  
    62    29    76 1   
    63    30    31 ar  
    64    30    38 ar  
    65    30    77 1   
    66    31    39 ar  
    67    31    78 1   
    68    32    39 1   
    69    32    40 1   
    70    32    79 1   
    71    33    34 ar  
    72    33    40 ar  
    73    33    80 1   
    74    34    35 ar  
    75    34    81 1   
    76    35    36 1   
    77    35    37 ar  
    78    36    44 1   
    79    37    41 ar  
    80    37    82 1   
    81    38    43 ar  
    82    39    42 ar  
    83    40    41 ar  
    84    41    42 1   
    85    42    43 ar  
    86    44    83 1   
    87    44    84 1   
    88    44    85 1   
    89    45    46 1   
    90    45    86 1   
    91    45    87 1   
    92    46    47 1   
    93    46    88 1   
    94    46    89 1   
    95    47    48 1   
    96    47    90 1   
    97    47    91 1   
    98    48    49 1   
    99    48    92 1   
   100    48    93 1   
   101    49    50 1   
   102    49    94 1   
   103    49    95 1   
   104    50    96 1   
   105    50    97 1   
@<TRIPOS>SUBSTRUCTURE
     1 FLD         1 TEMP              0 ****  ****    0 ROOT
