@<TRIPOS>MOLECULE
FLD
   98   105     1     0     0
SMALL
No Charge or Current Charge


@<TRIPOS>ATOM
      1 C1           8.8670    -1.0410    -0.6640 ca         1 FLD      -0.038000
      2 N2           8.2260    -2.2460    -0.9650 na         1 FLD       0.030300
      3 C3           8.8780    -3.4500    -0.6990 ca         1 FLD      -0.109300
      4 C4          10.1640    -3.4610    -0.1360 ca         1 FLD      -0.045500
      5 C5          12.1090    -2.2840     0.7360 ca         1 FLD      -0.103500
      6 C6          12.7850    -1.0920     1.0530 ca         1 FLD       0.002000
      7 N7          12.5640     1.4230     1.0020 na         1 FLD      -0.160100
      8 C8          11.6580     3.7580     0.6490 ca         1 FLD      -0.060000
      9 C9          10.5370     4.4660     0.1720 ca         1 FLD      -0.127500
     10 C10          9.4080     3.7660    -0.3350 ca         1 FLD       0.159100
     11 O10          8.2880     4.4170    -0.8120 os         1 FLD      -0.351600
     12 C11          9.3980     2.3540    -0.3650 ca         1 FLD      -0.144000
     13 C12         10.8120    -2.2480     0.1680 ca         1 FLD       0.016000
     14 C13         12.1270     0.1110     0.7870 ca         1 FLD      -0.000200
     15 C14         11.6100     2.3620     0.6010 ca         1 FLD      -0.036200
     16 C15         10.5220     1.6370     0.1120 cp         1 FLD      -0.053000
     17 C16         10.8460     0.1960     0.2270 cp         1 FLD      -0.091500
     18 C17         10.1580    -1.0100    -0.0960 ca         1 FLD      -0.002000
     19 C18          8.1800     5.8530    -0.8330 c3         1 FLD       0.138900
     20 C19          6.8590    -2.2470    -1.5170 c3         1 FLD       0.016100
     21 C20          5.7840    -2.2430    -0.4120 c3         1 FLD       0.066600
     22 N21          4.3590    -2.2450    -0.9830 ny         1 FLD      -0.819500
     23 C22          3.2270    -2.2390     0.0410 c3         1 FLD       0.096600
     24 C23          1.8560    -2.2420    -0.6550 c3         1 FLD      -0.106400
     25 C24          0.6830    -2.2370     0.3490 c3         1 FLD      -0.069400
     26 C1X         -8.8860    -1.0420     0.6660 ca         1 FLD      -0.038000
     27 N2X         -8.2430    -2.2440     0.9770 na         1 FLD       0.030300
     28 C3X         -8.8930    -3.4510     0.7210 ca         1 FLD      -0.109300
     29 C4X        -10.1800    -3.4690     0.1590 ca         1 FLD      -0.045500
     30 C5X        -12.1280    -2.3020    -0.7210 ca         1 FLD      -0.103500
     31 C6X        -12.8050    -1.1140    -1.0470 ca         1 FLD       0.002000
     32 N7X        -12.5890     1.4020    -1.0170 na         1 FLD      -0.160100
     33 C8X        -11.6860     3.7410    -0.6840 ca         1 FLD      -0.060000
     34 C9X        -10.5660     4.4550    -0.2140 ca         1 FLD      -0.127500
     35 CAX         -9.4360     3.7600     0.2970 ca         1 FLD       0.159100
     36 OAX         -8.3160     4.4180     0.7680 os         1 FLD      -0.351600
     37 CBX         -9.4230     2.3490     0.3400 ca         1 FLD      -0.144000
     38 CCX        -10.8300    -2.2600    -0.1550 ca         1 FLD       0.016000
     39 CDX        -12.1500     0.0920    -0.7910 ca         1 FLD      -0.000200
     40 CEX        -11.6360     2.3460    -0.6250 ca         1 FLD      -0.036200
     41 CFX        -10.5460     1.6260    -0.1310 cp         1 FLD      -0.053000
     42 CGX        -10.8680     0.1840    -0.2340 cp         1 FLD      -0.091500
     43 CHX        -10.1780    -1.0180     0.0990 ca         1 FLD      -0.002000
     44 CIX         -8.2110     5.8540     0.7770 c3         1 FLD       0.138900
     45 CJX         -6.8760    -2.2380     1.5280 c3         1 FLD       0.016100
     46 CKX         -5.8010    -2.2430     0.4230 c3         1 FLD       0.066600
     47 NLX         -4.3760    -2.2380     0.9930 ny         1 FLD      -0.819500
     48 CMX         -3.2440    -2.2410    -0.0300 c3         1 FLD       0.096600
     49 CNX         -1.8740    -2.2370     0.6660 c3         1 FLD      -0.106400
     50 COX         -0.7000    -2.2410    -0.3390 c3         1 FLD      -0.069400
     51 H1           8.3140    -0.1390    -0.8900 h4         1 FLD       0.168000
     52 H3           8.3600    -4.3790    -0.9400 h4         1 FLD       0.167000
     53 H4          10.6550    -4.4120     0.0630 ha         1 FLD       0.181000
     54 H5          12.5960    -3.2370     0.9330 ha         1 FLD       0.161000
     55 H6          13.7810    -1.1080     1.4890 ha         1 FLD       0.166000
     56 HN7         13.4660     1.6640     1.4000 hn         1 FLD       0.390000
     57 H8          12.5290     4.2810     1.0390 ha         1 FLD       0.152000
     58 H9          10.5590     5.5520     0.2020 ha         1 FLD       0.151000
     59 H11          8.5210     1.8600    -0.7570 ha         1 FLD       0.099000
     60 H181         8.9700     6.2960    -1.4540 h1         1 FLD       0.058367
     61 H182         7.2120     6.1570    -1.2500 h1         1 FLD       0.058367
     62 H183         8.2550     6.2670     0.1810 h1         1 FLD       0.058367
     63 H191         6.7340    -1.3660    -2.1580 h1         1 FLD       0.107700
     64 H192         6.7340    -3.1350    -2.1500 h1         1 FLD       0.107700
     65 H201         5.9180    -3.1260     0.2230 hx         1 FLD       0.122450
     66 H202         5.9180    -1.3560     0.2170 hx         1 FLD       0.122450
     67 HN21         4.2350    -1.4350    -1.6310 hn         1 FLD       0.512500
     68 HN22         4.2350    -3.0620    -1.6220 hn         1 FLD       0.512500
     69 H221         3.3150    -3.1230     0.6810 hx         1 FLD       0.110700
     70 H222         3.3160    -1.3490     0.6720 hx         1 FLD       0.110700
     71 H231         1.7790    -1.3620    -1.3060 hc         1 FLD       0.073200
     72 H232         1.7790    -3.1280    -1.2970 hc         1 FLD       0.073200
     73 H241         0.7640    -3.1160     1.0030 hc         1 FLD       0.065200
     74 H242         0.7630    -1.3520     0.9940 hc         1 FLD       0.065200
     75 H3X         -8.3730    -4.3770     0.9690 h4         1 FLD       0.167000
     76 H4X        -10.6700    -4.4220    -0.0320 ha         1 FLD       0.181000
     77 H5X        -12.6130    -3.2580    -0.9090 ha         1 FLD       0.161000
     78 H6X        -13.8020    -1.1360    -1.4820 ha         1 FLD       0.166000
     79 HN7X       -13.4920     1.6380    -1.4160 hn         1 FLD       0.390000
     80 H8X        -12.5580     4.2590    -1.0780 ha         1 FLD       0.152000
     81 H9X        -10.5900     5.5400    -0.2530 ha         1 FLD       0.151000
     82 H11X        -8.5450     1.8600     0.7350 ha         1 FLD       0.099000
     83 HX81        -8.2870     6.2590    -0.2400 h1         1 FLD       0.058367
     84 HX82        -9.0000     6.3010     1.3950 h1         1 FLD       0.058367
     85 HX83        -7.2430     6.1620     1.1910 h1         1 FLD       0.058367
     86 HX91        -6.7490    -3.1200     2.1690 h1         1 FLD       0.107700
     87 HX92        -6.7520    -1.3510     2.1610 h1         1 FLD       0.107700
     88 HX01        -5.9360    -1.3620    -0.2140 hx         1 FLD       0.122450
     89 HX02        -5.9340    -3.1320    -0.2030 hx         1 FLD       0.122450
     90 HN1X        -4.2510    -3.0490     1.6410 hn         1 FLD       0.512500
     91 HN2X        -4.2530    -1.4220     1.6340 hn         1 FLD       0.512500
     92 HX21        -3.3340    -1.3570    -0.6700 hx         1 FLD       0.110700
     93 HX22        -3.3320    -3.1310    -0.6620 hx         1 FLD       0.110700
     94 HX31        -1.7960    -3.1170     1.3160 hc         1 FLD       0.073200
     95 HX32        -1.7970    -1.3500     1.3080 hc         1 FLD       0.073200
     96 HX41        -0.7810    -1.3620    -0.9920 hc         1 FLD       0.065200
     97 HX42        -0.7810    -3.1260    -0.9840 hc         1 FLD       0.065200
     98 H1X         -8.3340    -0.1380     0.8840 h4         1 FLD       0.168000
@<TRIPOS>BOND
     1     1     2 1   
     2     1    18 ar  
     3     1    51 1   
     4     2     3 2   
     5     2    20 1   
     6     3     4 ar  
     7     3    52 1   
     8     4    13 ar  
     9     4    53 1   
    10     5     6 ar  
    11     5    13 ar  
    12     5    54 1   
    13     6    14 ar  
    14     6    55 1   
    15     7    14 1   
    16     7    15 1   
    17     7    56 1   
    18     8     9 ar  
    19     8    15 ar  
    20     8    57 1   
    21     9    10 ar  
    22     9    58 1   
    23    10    11 1   
    24    10    12 ar  
    25    11    19 1   
    26    12    16 ar  
    27    12    59 1   
    28    13    18 ar  
    29    14    17 ar  
    30    15    16 ar  
    31    16    17 1   
    32    17    18 ar  
    33    19    60 1   
    34    19    61 1   
    35    19    62 1   
    36    20    21 1   
    37    20    63 1   
    38    20    64 1   
    39    21    22 1   
    40    21    65 1   
    41    21    66 1   
    42    22    23 1   
    43    22    67 1   
    44    22    68 1   
    45    23    24 1   
    46    23    69 1   
    47    23    70 1   
    48    24    25 1   
    49    24    71 1   
    50    24    72 1   
    51    25    50 1   
    52    25    73 1   
    53    25    74 1   
    54    26    27 1   
    55    26    43 ar  
    56    26    98 1   
    57    27    28 2   
    58    27    45 1   
    59    28    29 ar  
    60    28    75 1   
    61    29    38 ar  
    62    29    76 1   
    63    30    31 ar  
    64    30    38 ar  
    65    30    77 1   
    66    31    39 ar  
    67    31    78 1   
    68    32    39 1   
    69    32    40 1   
    70    32    79 1   
    71    33    34 ar  
    72    33    40 ar  
    73    33    80 1   
    74    34    35 ar  
    75    34    81 1   
    76    35    36 1   
    77    35    37 ar  
    78    36    44 1   
    79    37    41 ar  
    80    37    82 1   
    81    38    43 ar  
    82    39    42 ar  
    83    40    41 ar  
    84    41    42 1   
    85    42    43 ar  
    86    44    83 1   
    87    44    84 1   
    88    44    85 1   
    89    45    46 1   
    90    45    86 1   
    91    45    87 1   
    92    46    47 1   
    93    46    88 1   
    94    46    89 1   
    95    47    48 1   
    96    47    90 1   
    97    47    91 1   
    98    48    49 1   
    99    48    92 1   
   100    48    93 1   
   101    49    50 1   
   102    49    94 1   
   103    49    95 1   
   104    50    96 1   
   105    50    97 1   
@<TRIPOS>SUBSTRUCTURE
     1 FLD         1 TEMP              0 ****  ****    0 ROOT
