@<TRIPOS>MOLECULE
FLE
   30    30     1     0     0
SMALL
bcc


@<TRIPOS>ATOM
      1 N           25.0850     0.5460    21.7900 ns         1 FLE      -0.510900
      2 CA          23.7150     0.4010    21.3550 c3         1 FLE      -0.042300
      3 CB          23.1740    -0.9510    21.8250 c3         1 FLE      -0.071400
      4 CG          23.9850    -2.1770    21.4010 c3         1 FLE      -0.063700
      5 CD1         23.3360    -3.4390    21.9610 c3         1 FLE      -0.083100
      6 CD2         24.1360    -2.2760    19.8880 c3         1 FLE      -0.083100
      7 C           22.7870     1.5510    21.8430 c          1 FLE       0.927600
      8 OXT         21.6450     1.5400    21.3440 o          1 FLE      -0.824300
      9 O           23.2450     2.3510    22.6770 o          1 FLE      -0.824300
     10 C2          25.9570     1.3710    21.1950 c          1 FLE       0.592600
     11 O3          25.7220     2.0110    20.1780 o          1 FLE      -0.599100
     12 C4          27.2890     1.4320    21.8320 cc         1 FLE       0.216200
     13 O8          28.1530     2.3290    21.3130 os         1 FLE      -0.281800
     14 C5          27.8860     0.7560    22.8520 cd         1 FLE      -0.262300
     15 C6          29.2030     1.2810    22.9600 cd         1 FLE      -0.288300
     16 C7          29.3020     2.2310    21.9980 cc         1 FLE       0.218600
     17 H           25.3130     0.1870    22.7040 hn         1 FLE       0.298500
     18 HA          23.7090     0.4200    20.2630 h1         1 FLE       0.065700
     19 HB2         23.0950    -0.9420    22.9190 hc         1 FLE       0.048700
     20 HB3         22.1540    -1.0520    21.4480 hc         1 FLE       0.048700
     21 HG          24.9880    -2.0990    21.8350 hc         1 FLE       0.032700
     22 HD11        23.9210    -4.3270    21.7180 hc         1 FLE       0.024200
     23 HD12        23.2420    -3.3890    23.0480 hc         1 FLE       0.024200
     24 HD13        22.3340    -3.5790    21.5490 hc         1 FLE       0.024200
     25 HD21        24.6710    -3.1850    19.6080 hc         1 FLE       0.024200
     26 HD22        23.1600    -2.3050    19.3970 hc         1 FLE       0.024200
     27 HD23        24.6910    -1.4330    19.4730 hc         1 FLE       0.024200
     28 H5          27.4560    -0.0290    23.4530 ha         1 FLE       0.155000
     29 H6          29.9710     0.9880    23.6570 ha         1 FLE       0.146000
     30 H7          30.1010     2.8910    21.7010 h4         1 FLE       0.040100
@<TRIPOS>BOND
     1     1     2 1   
     2     1    10 1   
     3     1    17 1   
     4     2     3 1   
     5     2     7 1   
     6     2    18 1   
     7     3     4 1   
     8     3    19 1   
     9     3    20 1   
    10     4     5 1   
    11     4     6 1   
    12     4    21 1   
    13     5    22 1   
    14     5    23 1   
    15     5    24 1   
    16     6    25 1   
    17     6    26 1   
    18     6    27 1   
    19     7     8 1   
    20     7     9 1   
    21    10    11 2   
    22    10    12 1   
    23    12    13 1   
    24    12    14 2   
    25    13    16 1   
    26    14    15 1   
    27    14    28 1   
    28    15    16 2   
    29    15    29 1   
    30    16    30 1   
@<TRIPOS>SUBSTRUCTURE
     1 FLE         1 TEMP              0 ****  ****    0 ROOT
