@<TRIPOS>MOLECULE
FLE
   30    30     1     0     0
SMALL
No Charge or Current Charge


@<TRIPOS>ATOM
      1 N           25.0170     0.8140    21.8960 ns         1 FLE      -0.443900
      2 CA          23.6260     0.4710    21.5070 c3         1 FLE      -0.042300
      3 CB          23.2640    -0.9900    21.8940 c3         1 FLE      -0.071400
      4 CG          24.0460    -2.1090    21.1490 c3         1 FLE      -0.063700
      5 CD1         23.7760    -3.4900    21.7880 c3         1 FLE      -0.083100
      6 CD2         23.7380    -2.1440    19.6330 c3         1 FLE      -0.083100
      7 C           22.6280     1.4840    22.1470 c          1 FLE       0.717000
      8 OXT         21.8640     2.0880    21.4060 o          1 FLE      -0.719000
      9 O           22.7040     1.6970    23.3510 o          1 FLE      -0.719000
     10 C2          26.1110     0.8520    21.0470 c          1 FLE       0.525600
     11 O3          26.0110     0.6340    19.8450 o          1 FLE      -0.599100
     12 C4          27.3990     1.1870    21.7270 cc         1 FLE       0.106500
     13 O8          28.5990     1.2770    21.0500 os         1 FLE      -0.193000
     14 C5          27.6050     1.4440    23.0620 cd         1 FLE      -0.179000
     15 C6          28.9820     1.7050    23.2180 cd         1 FLE      -0.205000
     16 C7          29.5610     1.5970    21.9830 cc         1 FLE       0.108900
     17 H           25.1880     1.0390    22.8690 hn         1 FLE       0.298500
     18 HA          23.5240     0.5870    20.4210 h1         1 FLE       0.065700
     19 HB2         23.4160    -1.1060    22.9750 hc         1 FLE       0.048700
     20 HB3         22.1910    -1.1420    21.7210 hc         1 FLE       0.048700
     21 HG          25.1190    -1.9110    21.2660 hc         1 FLE       0.032700
     22 HD11        24.3640    -4.2700    21.2900 hc         1 FLE       0.024200
     23 HD12        24.0520    -3.4880    22.8500 hc         1 FLE       0.024200
     24 HD13        22.7150    -3.7570    21.7100 hc         1 FLE       0.024200
     25 HD21        24.3010    -2.9480    19.1440 hc         1 FLE       0.024200
     26 HD22        22.6700    -2.3190    19.4560 hc         1 FLE       0.024200
     27 HD23        24.0170    -1.2040    19.1450 hc         1 FLE       0.024200
     28 H5          26.8590     1.4480    23.8500 ha         1 FLE       0.137000
     29 H6          29.4960     1.9460    24.1430 ha         1 FLE       0.128000
     30 H7          30.5810     1.7130    21.6430 h4         1 FLE       0.040100
@<TRIPOS>BOND
     1     1     2 1   
     2     1    10 1   
     3     1    17 1   
     4     2     3 1   
     5     2     7 1   
     6     2    18 1   
     7     3     4 1   
     8     3    19 1   
     9     3    20 1   
    10     4     5 1   
    11     4     6 1   
    12     4    21 1   
    13     5    22 1   
    14     5    23 1   
    15     5    24 1   
    16     6    25 1   
    17     6    26 1   
    18     6    27 1   
    19     7     8 1   
    20     7     9 1   
    21    10    11 2   
    22    10    12 1   
    23    12    13 1   
    24    12    14 2   
    25    13    16 1   
    26    14    15 1   
    27    14    28 1   
    28    15    16 2   
    29    15    29 1   
    30    16    30 1   
@<TRIPOS>SUBSTRUCTURE
     1 FLE         1 TEMP              0 ****  ****    0 ROOT
