@<TRIPOS>MOLECULE
FLF
   29    30     1     0     0
SMALL
No Charge or Current Charge


@<TRIPOS>ATOM
      1 C1           0.2730     0.2900     3.2940 ca         1 FLF      -0.195600
      2 O1           2.3790     0.5470     2.2510 o          1 FLF      -0.709000
      3 C2          -0.3640     0.4300     4.5500 ca         1 FLF      -0.055000
      4 C3          -1.7580     0.5730     4.6360 ca         1 FLF      -0.180000
      5 O2           2.3440    -0.3340     4.2120 o          1 FLF      -0.709000
      6 C4          -2.5360     0.5870     3.4720 ca         1 FLF      -0.098000
      7 C5          -1.9170     0.4450     2.2220 ca         1 FLF      -0.205000
      8 C6          -0.5220     0.2770     2.1230 ca         1 FLF       0.331000
      9 C7           1.7780     0.1490     3.2420 c          1 FLF       0.720600
     10 N            0.0760     0.1440     0.8730 nu         1 FLF      -0.999000
     11 C8          -0.3480    -0.2760    -0.3880 ca         1 FLF       0.358000
     12 C9           0.3650     0.1470    -1.5220 ca         1 FLF      -0.136000
     13 C10         -0.0160    -0.2640    -2.8210 ca         1 FLF      -0.160300
     14 C11         -1.1180    -1.1350    -2.9580 ca         1 FLF      -0.142000
     15 C12         -1.8230    -1.5780    -1.8270 ca         1 FLF      -0.087000
     16 C13         -1.4370    -1.1510    -0.5450 ca         1 FLF      -0.167000
     17 C14          0.7730     0.2090    -4.0500 c3         1 FLF       0.351300
     18 F1           0.0190     0.2280    -5.1740 f          1 FLF      -0.122667
     19 F2           1.2620     1.4610    -3.8940 f          1 FLF      -0.122667
     20 F3           1.8280    -0.5990    -4.2970 f          1 FLF      -0.122667
     21 H2           0.2250     0.4370     5.4650 ha         1 FLF       0.129000
     22 H3          -2.2330     0.6850     5.6080 ha         1 FLF       0.091000
     23 H4          -3.6140     0.7140     3.5370 ha         1 FLF       0.084000
     24 H5          -2.5300     0.4840     1.3270 ha         1 FLF       0.098000
     25 HN1          1.0850     0.3460     0.9350 hn         1 FLF       0.574000
     26 H1           1.2180     0.8080    -1.3920 ha         1 FLF       0.136000
     27 H7          -1.4280    -1.4830    -3.9420 ha         1 FLF       0.113000
     28 H8          -2.6640    -2.2580    -1.9420 ha         1 FLF       0.100000
     29 H6          -1.9720    -1.5230     0.3220 ha         1 FLF       0.125000
@<TRIPOS>BOND
     1     1     3 ar  
     2     1     8 ar  
     3     1     9 1   
     4     2     9 1   
     5     3     4 ar  
     6     3    21 1   
     7     4     6 ar  
     8     4    22 1   
     9     5     9 1   
    10     6     7 ar  
    11     6    23 1   
    12     7     8 ar  
    13     7    24 1   
    14     8    10 1   
    15    10    11 1   
    16    10    25 1   
    17    11    12 ar  
    18    11    16 ar  
    19    12    13 ar  
    20    12    26 1   
    21    13    14 ar  
    22    13    17 1   
    23    14    15 ar  
    24    14    27 1   
    25    15    16 ar  
    26    15    28 1   
    27    16    29 1   
    28    17    18 1   
    29    17    19 1   
    30    17    20 1   
@<TRIPOS>SUBSTRUCTURE
     1 FLF         1 TEMP              0 ****  ****    0 ROOT
