@<TRIPOS>MOLECULE
FLF
   29    30     1     0     0
SMALL
abcg2


@<TRIPOS>ATOM
      1 C1           0.2800     0.2620     3.2430 ca         1 FLF      -0.195600
      2 O1           2.3770     0.2620     2.1150 o          1 FLF      -0.709000
      3 C2          -0.3660     0.3630     4.4720 ca         1 FLF      -0.055000
      4 C3          -1.7410     0.4860     4.5800 ca         1 FLF      -0.180000
      5 O2           2.3700     0.0140     4.3190 o          1 FLF      -0.709000
      6 C4          -2.5010     0.5240     3.4180 ca         1 FLF      -0.098000
      7 C5          -1.8950     0.4270     2.1780 ca         1 FLF      -0.205000
      8 C6          -0.5060     0.2760     2.0650 ca         1 FLF       0.331000
      9 C7           1.7980     0.1660     3.2300 c          1 FLF       0.720600
     10 N            0.1300     0.2060     0.8450 nu         1 FLF      -0.999000
     11 C8          -0.3560    -0.2200    -0.3710 ca         1 FLF       0.358000
     12 C9           0.3560     0.1510    -1.5180 ca         1 FLF      -0.136000
     13 C10         -0.0450    -0.2760    -2.7750 ca         1 FLF      -0.160300
     14 C11         -1.1720    -1.0730    -2.9320 ca         1 FLF      -0.142000
     15 C12         -1.8760    -1.4480    -1.7960 ca         1 FLF      -0.087000
     16 C13         -1.4800    -1.0420    -0.5330 ca         1 FLF      -0.167000
     17 C14          0.7720     0.1490    -3.9540 c3         1 FLF       0.351300
     18 F1           0.2400    -0.2340    -5.1190 f          1 FLF      -0.122667
     19 F2           0.9140     1.4820    -4.0110 f          1 FLF      -0.122667
     20 F3           2.0130    -0.3600    -3.9080 f          1 FLF      -0.122667
     21 H2           0.2420     0.3440     5.3670 ha         1 FLF       0.129000
     22 H3          -2.2120     0.5620     5.5510 ha         1 FLF       0.091000
     23 H4          -3.5760     0.6400     3.4710 ha         1 FLF       0.084000
     24 H5          -2.5080     0.4970     1.2900 ha         1 FLF       0.098000
     25 HN1          1.1490     0.2930     0.9660 hn         1 FLF       0.574000
     26 H1           1.2260     0.7870    -1.4030 ha         1 FLF       0.136000
     27 H7          -1.5030    -1.4050    -3.9050 ha         1 FLF       0.113000
     28 H8          -2.7460    -2.0830    -1.8940 ha         1 FLF       0.100000
     29 H6          -2.0370    -1.3870     0.3260 ha         1 FLF       0.125000
@<TRIPOS>BOND
     1     1     3 ar  
     2     1     8 ar  
     3     1     9 1   
     4     2     9 1   
     5     3     4 ar  
     6     3    21 1   
     7     4     6 ar  
     8     4    22 1   
     9     5     9 1   
    10     6     7 ar  
    11     6    23 1   
    12     7     8 ar  
    13     7    24 1   
    14     8    10 1   
    15    10    11 1   
    16    10    25 1   
    17    11    12 ar  
    18    11    16 ar  
    19    12    13 ar  
    20    12    26 1   
    21    13    14 ar  
    22    13    17 1   
    23    14    15 ar  
    24    14    27 1   
    25    15    16 ar  
    26    15    28 1   
    27    16    29 1   
    28    17    18 1   
    29    17    19 1   
    30    17    20 1   
@<TRIPOS>SUBSTRUCTURE
     1 FLF         1 TEMP              0 ****  ****    0 ROOT
