@<TRIPOS>MOLECULE
FLG
   48    51     1     0     0
SMALL
No Charge or Current Charge


@<TRIPOS>ATOM
      1 S1           8.3240    -0.4790     8.6570 s          1 FLG      -0.728400
      2 C21          7.0340    -1.3970     8.1450 cs         1 FLG       0.495400
      3 N1           5.8260    -0.8110     7.8730 ns         1 FLG      -0.364100
      4 C17          4.6930    -1.1970     7.1210 ca         1 FLG       0.011600
      5 C18          4.8280    -1.8800     5.9000 ca         1 FLG      -0.112000
      6 C19          3.6940    -2.2540     5.1450 ca         1 FLG      -0.101600
      7 C20          3.8900    -2.9980     3.8400 c          1 FLG       0.706600
      8 O4           4.7680    -2.6030     3.0850 o          1 FLG      -0.689500
      9 O5           3.2120    -3.9910     3.6210 o          1 FLG      -0.689500
     10 C16          3.4170    -0.8340     7.5730 ca         1 FLG      -0.156000
     11 C15          2.2800    -1.1880     6.8310 ca         1 FLG      -0.102000
     12 C14          2.4040    -1.9070     5.6250 ca         1 FLG      -0.072000
     13 C10          1.1900    -2.2290     4.8670 cc         1 FLG       0.217000
     14 C9           0.3810    -3.2790     5.2980 cd         1 FLG      -0.184800
     15 C4          -0.8170    -3.5700     4.5560 cd         1 FLG       0.256000
     16 O2          -1.1740    -2.8530     3.4560 os         1 FLG      -0.299000
     17 C5          -1.6360    -4.5930     4.9470 cc         1 FLG      -0.396200
     18 C8           0.7500    -4.0650     6.4550 cd         1 FLG      -0.064200
     19 C7          -0.0990    -5.0900     6.8230 cc         1 FLG      -0.323200
     20 C6          -1.3380    -5.4190     6.1090 c          1 FLG       0.590500
     21 O3          -2.0730    -6.3290     6.4620 o          1 FLG      -0.604100
     22 C11          0.7760    -1.4670     3.6850 ca         1 FLG      -0.142000
     23 C3          -0.4060    -1.8120     3.0090 ca         1 FLG       0.245000
     24 C2          -0.8230    -1.0980     1.8770 ca         1 FLG      -0.196000
     25 C12          1.5390    -0.3780     3.2100 ca         1 FLG       0.023000
     26 C13          1.1200     0.3380     2.0740 ca         1 FLG      -0.246000
     27 C1          -0.0580    -0.0250     1.4100 ca         1 FLG       0.182100
     28 O1          -0.4650     0.6670     0.3120 oh         1 FLG      -0.533100
     29 N2           7.1490    -2.7610     8.0760 ns         1 FLG      -0.429900
     30 C22          6.0920    -3.7790     8.0280 c3         1 FLG       0.086000
     31 C23          6.4840    -5.0260     8.8360 c3         1 FLG      -0.113100
     32 H18          5.8210    -2.1250     5.5280 ha         1 FLG       0.153000
     33 H16          3.3020    -0.2820     8.5030 ha         1 FLG       0.106000
     34 H15          1.2940    -0.9030     7.1920 ha         1 FLG       0.109000
     35 H5          -2.5440    -4.8340     4.4100 ha         1 FLG       0.197000
     36 H8           1.6560    -3.8810     7.0290 ha         1 FLG       0.185000
     37 H7           0.1150    -5.7170     7.6800 ha         1 FLG       0.184000
     38 H2          -1.7390    -1.3790     1.3670 ha         1 FLG       0.141000
     39 H12          2.4560    -0.0790     3.7140 ha         1 FLG       0.135000
     40 H13          1.7190     1.1730     1.7190 ha         1 FLG       0.113000
     41 H221         5.1620    -3.3720     8.4470 h1         1 FLG       0.068700
     42 H222         5.9130    -4.0680     6.9840 h1         1 FLG       0.068700
     43 H231         7.3980    -5.4790     8.4330 hc         1 FLG       0.043367
     44 H232         6.6560    -4.7680     9.8880 hc         1 FLG       0.043367
     45 H233         5.6830    -5.7740     8.7930 hc         1 FLG       0.043367
     46 HN1          8.0840    -3.1020     8.2630 hn         1 FLG       0.338500
     47 HO1          0.1910     1.3750     0.1380 ho         1 FLG       0.465000
     48 HN2          5.8070     0.1660     8.1400 hn         1 FLG       0.340500
@<TRIPOS>BOND
     1     1     2 2   
     2     2     3 1   
     3     2    29 1   
     4     3     4 1   
     5     3    48 1   
     6     4     5 ar  
     7     4    10 ar  
     8     5     6 ar  
     9     5    32 1   
    10     6     7 1   
    11     6    12 ar  
    12     7     8 1   
    13     7     9 1   
    14    10    11 ar  
    15    10    33 1   
    16    11    12 ar  
    17    11    34 1   
    18    12    13 1   
    19    13    14 2   
    20    13    22 1   
    21    14    15 1   
    22    14    18 1   
    23    15    16 1   
    24    15    17 2   
    25    16    23 1   
    26    17    20 1   
    27    17    35 1   
    28    18    19 2   
    29    18    36 1   
    30    19    20 1   
    31    19    37 1   
    32    20    21 2   
    33    22    23 ar  
    34    22    25 ar  
    35    23    24 ar  
    36    24    27 ar  
    37    24    38 1   
    38    25    26 ar  
    39    25    39 1   
    40    26    27 ar  
    41    26    40 1   
    42    27    28 1   
    43    28    47 1   
    44    29    30 1   
    45    29    46 1   
    46    30    31 1   
    47    30    41 1   
    48    30    42 1   
    49    31    43 1   
    50    31    44 1   
    51    31    45 1   
@<TRIPOS>SUBSTRUCTURE
     1 FLG         1 TEMP              0 ****  ****    0 ROOT
