@<TRIPOS>MOLECULE
FLG
   48    51     1     0     0
SMALL
abcg2


@<TRIPOS>ATOM
      1 S1           8.3920    -0.4630     8.2260 s          1 FLG      -0.728400
      2 C21          7.0030    -1.3870     7.9870 cs         1 FLG       0.495400
      3 N1           5.8090    -0.7730     7.8040 ns         1 FLG      -0.364100
      4 C17          4.7110    -1.2150     7.0410 ca         1 FLG       0.011600
      5 C18          4.8750    -1.9810     5.8940 ca         1 FLG      -0.112000
      6 C19          3.7800    -2.3800     5.1380 ca         1 FLG      -0.101600
      7 C20          3.9820    -3.2320     3.8940 c          1 FLG       0.706600
      8 O4           5.1480    -3.5490     3.6050 o          1 FLG      -0.689500
      9 O5           2.9400    -3.5280     3.2800 o          1 FLG      -0.689500
     10 C16          3.4330    -0.8200     7.4240 ca         1 FLG      -0.156000
     11 C15          2.3410    -1.2000     6.6650 ca         1 FLG      -0.102000
     12 C14          2.5020    -1.9860     5.5270 ca         1 FLG      -0.072000
     13 C10          1.2790    -2.3410     4.7680 cc         1 FLG       0.217000
     14 C9           0.4520    -3.3550     5.1890 cd         1 FLG      -0.184800
     15 C4          -0.8000    -3.5770     4.5300 cd         1 FLG       0.256000
     16 O2          -1.1820    -2.7530     3.5300 os         1 FLG      -0.299000
     17 C5          -1.6440    -4.5860     4.8740 cc         1 FLG      -0.396200
     18 C8           0.7860    -4.2600     6.2470 cd         1 FLG      -0.064200
     19 C7          -0.0350    -5.2680     6.6050 cc         1 FLG      -0.323200
     20 C6          -1.3150    -5.4990     5.9390 c          1 FLG       0.590500
     21 O3          -2.0620    -6.4250     6.2780 o          1 FLG      -0.604100
     22 C11          0.8380    -1.4890     3.7070 ca         1 FLG      -0.142000
     23 C3          -0.4050    -1.7370     3.1150 ca         1 FLG       0.245000
     24 C2          -0.9020    -0.9590     2.0830 ca         1 FLG      -0.196000
     25 C12          1.5860    -0.4130     3.2080 ca         1 FLG       0.023000
     26 C13          1.1190     0.3700     2.1820 ca         1 FLG      -0.246000
     27 C1          -0.1360     0.0990     1.6130 ca         1 FLG       0.182100
     28 O1          -0.6390     0.8300     0.6140 oh         1 FLG      -0.533100
     29 N2           7.0490    -2.7200     8.0050 ns         1 FLG      -0.429900
     30 C22          5.9650    -3.6590     8.2560 c3         1 FLG       0.086000
     31 C23          6.4800    -4.8350     9.0660 c3         1 FLG      -0.113100
     32 H18          5.8640    -2.2740     5.5650 ha         1 FLG       0.153000
     33 H16          3.2930    -0.2200     8.3140 ha         1 FLG       0.106000
     34 H15          1.3490    -0.8880     6.9700 ha         1 FLG       0.109000
     35 H5          -2.5860    -4.7070     4.3520 ha         1 FLG       0.197000
     36 H8           1.7300    -4.1250     6.7590 ha         1 FLG       0.185000
     37 H7           0.2450    -5.9420     7.4060 ha         1 FLG       0.184000
     38 H2          -1.8710    -1.1760     1.6510 ha         1 FLG       0.141000
     39 H12          2.5540    -0.1970     3.6390 ha         1 FLG       0.135000
     40 H13          1.7180     1.1920     1.8110 ha         1 FLG       0.113000
     41 H221         5.1720    -3.1510     8.8050 h1         1 FLG       0.068700
     42 H222         5.5320    -4.0110     7.3170 h1         1 FLG       0.068700
     43 H231         7.2840    -5.3560     8.5420 hc         1 FLG       0.043367
     44 H232         6.8530    -4.5150    10.0390 hc         1 FLG       0.043367
     45 H233         5.6740    -5.5490     9.2290 hc         1 FLG       0.043367
     46 HN1          7.9830    -3.0950     8.0720 hn         1 FLG       0.338500
     47 HO1         -0.0300     1.5330     0.3630 ho         1 FLG       0.465000
     48 HN2          5.8250     0.2150     8.0090 hn         1 FLG       0.340500
@<TRIPOS>BOND
     1     1     2 2   
     2     2     3 1   
     3     2    29 1   
     4     3     4 1   
     5     3    48 1   
     6     4     5 ar  
     7     4    10 ar  
     8     5     6 ar  
     9     5    32 1   
    10     6     7 1   
    11     6    12 ar  
    12     7     8 1   
    13     7     9 1   
    14    10    11 ar  
    15    10    33 1   
    16    11    12 ar  
    17    11    34 1   
    18    12    13 1   
    19    13    14 2   
    20    13    22 1   
    21    14    15 1   
    22    14    18 1   
    23    15    16 1   
    24    15    17 2   
    25    16    23 1   
    26    17    20 1   
    27    17    35 1   
    28    18    19 2   
    29    18    36 1   
    30    19    20 1   
    31    19    37 1   
    32    20    21 2   
    33    22    23 ar  
    34    22    25 ar  
    35    23    24 ar  
    36    24    27 ar  
    37    24    38 1   
    38    25    26 ar  
    39    25    39 1   
    40    26    27 ar  
    41    26    40 1   
    42    27    28 1   
    43    28    47 1   
    44    29    30 1   
    45    29    46 1   
    46    30    31 1   
    47    30    41 1   
    48    30    42 1   
    49    31    43 1   
    50    31    44 1   
    51    31    45 1   
@<TRIPOS>SUBSTRUCTURE
     1 FLG         1 TEMP              0 ****  ****    0 ROOT
