@<TRIPOS>MOLECULE
FLI
  102   102     1     0     0
SMALL
No Charge or Current Charge


@<TRIPOS>ATOM
      1 C1          -5.6900    -0.3900    -0.3540 c          1 FLI       0.604100
      2 O1          -6.5380    -1.0370    -0.9530 o          1 FLI      -0.498000
      3 C2          -4.2090    -0.7860    -0.2070 c3         1 FLI      -0.104700
      4 C3          -4.0470    -2.2500     0.3060 c3         1 FLI       0.188300
      5 C4          -2.8240    -2.4420     1.2430 c3         1 FLI      -0.147400
      6 C5          -2.5880    -3.8910     1.7390 c3         1 FLI       0.177300
      7 C6          -1.4470    -4.0270     2.7850 c3         1 FLI      -0.108400
      8 C7           0.0290    -4.1130     2.2910 c3         1 FLI       0.182300
      9 C8           0.5850    -2.8960     1.5120 c3         1 FLI      -0.119400
     10 C9           2.1260    -2.9310     1.3480 c3         1 FLI       0.182300
     11 C10          2.6950    -1.7290     0.5560 c3         1 FLI      -0.115400
     12 C11          4.2450    -1.6800     0.5290 c3         1 FLI       0.181300
     13 C12          4.8080    -0.4560    -0.2330 c3         1 FLI      -0.113400
     14 C13          6.3430    -0.2580    -0.1030 c3         1 FLI       0.181300
     15 C14          6.9320     0.9220    -0.9310 c3         1 FLI      -0.094400
     16 C15          6.5290     2.3760    -0.5460 c3         1 FLI       0.213500
     17 C16          5.1400     2.8100    -1.0370 c2         1 FLI      -0.146400
     18 C17          4.0490     2.9300    -0.2330 ce         1 FLI      -0.177000
     19 C18          2.6750     3.2270    -0.6640 ce         1 FLI      -0.180000
     20 C19          1.6270     3.3500     0.1930 cf         1 FLI      -0.166000
     21 C1P         -3.4240    -0.3690    -1.4920 c3         1 FLI      -0.054400
     22 C20          0.2430     3.5300    -0.2160 cf         1 FLI      -0.183000
     23 C21         -0.8040     3.6150     0.6450 ce         1 FLI      -0.161000
     24 C22         -2.2090     3.6780     0.2340 ce         1 FLI      -0.185000
     25 C23         -3.2620     3.6250     1.0920 cf         1 FLI      -0.161000
     26 C24         -4.6480     3.5170     0.6660 cf         1 FLI      -0.183000
     27 C25         -5.6540     3.1440     1.4900 c2         1 FLI      -0.196200
     28 C26         -7.0700     2.7710     1.0590 c3         1 FLI      -0.050200
     29 C27         -7.1420     1.5510     0.0830 c3         1 FLI       0.181300
     30 C28         -7.2680     1.9890    -1.3990 c3         1 FLI      -0.109100
     31 C29          5.1410     3.0790    -2.5400 c3         1 FLI      -0.058900
     32 C2P         -1.8840    -0.4440    -1.3820 c3         1 FLI      -0.074400
     33 O30         -5.9100     0.8200     0.2480 os         1 FLI      -0.450100
     34 C3P         -1.1450     0.2350    -2.5520 c3         1 FLI      -0.073400
     35 C4P          0.3880     0.0840    -2.4430 c3         1 FLI      -0.079400
     36 C5P          1.1480     0.7530    -3.6060 c3         1 FLI      -0.073400
     37 C6P          2.6680     0.5340    -3.5230 c3         1 FLI      -0.094100
     38 OA3         -3.9340    -3.1660    -0.7800 oh         1 FLI      -0.674000
     39 OA5         -2.2970    -4.7470     0.6350 oh         1 FLI      -0.690000
     40 OA7          0.2020    -5.2620     1.4660 oh         1 FLI      -0.690000
     41 OA9          2.5150    -4.1220     0.6640 oh         1 FLI      -0.699000
     42 OB1          4.7580    -2.8570    -0.0950 oh         1 FLI      -0.694000
     43 OB3          7.0030    -1.4600    -0.5340 oh         1 FLI      -0.690000
     44 OB5          6.6710     2.5650     0.8640 oh         1 FLI      -0.660000
     45 H2          -3.8140    -0.1250     0.5750 hc         1 FLI       0.062700
     46 H3          -4.9360    -2.4990     0.9020 h1         1 FLI       0.052700
     47 H4          -1.9220    -2.0740     0.7580 hc         1 FLI       0.050200
     48 H4A         -2.9720    -1.8020     2.1210 hc         1 FLI       0.050200
     49 H5          -3.5180    -4.2190     2.2270 h1         1 FLI       0.059700
     50 H6          -1.5270    -3.2030     3.5040 hc         1 FLI       0.055700
     51 H6A         -1.6440    -4.9350     3.3680 hc         1 FLI       0.055700
     52 H7           0.6490    -4.2250     3.1920 h1         1 FLI       0.029700
     53 H8           0.1290    -2.8480     0.5170 hc         1 FLI       0.058200
     54 H8A          0.3090    -1.9760     2.0420 hc         1 FLI       0.058200
     55 H9           2.5750    -2.9180     2.3500 h1         1 FLI       0.026700
     56 H10          2.3070    -1.7460    -0.4700 hc         1 FLI       0.059200
     57 H10A         2.3250    -0.8030     1.0130 hc         1 FLI       0.059200
     58 H11          4.6010    -1.6260     1.5670 h1         1 FLI       0.025700
     59 H12          4.5330    -0.5240    -1.2920 hc         1 FLI       0.066200
     60 H12A         4.3090     0.4260     0.1700 hc         1 FLI       0.066200
     61 H13          6.5720    -0.0820     0.9570 h1         1 FLI       0.047700
     62 H14          8.0240     0.8720    -0.8430 hc         1 FLI       0.054200
     63 H14A         6.7170     0.7560    -1.9920 hc         1 FLI       0.054200
     64 H15          7.2580     3.0300    -1.0450 h1         1 FLI       0.035700
     65 H17          4.1510     2.7320     0.8350 ha         1 FLI       0.176000
     66 H18          2.4720     3.2940    -1.7320 ha         1 FLI       0.176000
     67 H19          1.8190     3.2640     1.2650 ha         1 FLI       0.170000
     68 H1P         -3.7590    -0.9710    -2.3460 hc         1 FLI       0.055700
     69 H1PA        -3.6950     0.6680    -1.7280 hc         1 FLI       0.055700
     70 H20          0.0380     3.5460    -1.2890 ha         1 FLI       0.173000
     71 H21         -0.6050     3.5770     1.7190 ha         1 FLI       0.171000
     72 H22         -2.4080     3.6920    -0.8390 ha         1 FLI       0.172000
     73 H23         -3.0610     3.5640     2.1640 ha         1 FLI       0.171000
     74 H24         -4.8460     3.6320    -0.4010 ha         1 FLI       0.173000
     75 H25         -5.4460     2.9750     2.5480 ha         1 FLI       0.170000
     76 H26         -7.6570     2.5200     1.9510 hc         1 FLI       0.056700
     77 H26A        -7.5720     3.6390     0.6150 hc         1 FLI       0.056700
     78 H27         -8.0110     0.9330     0.3480 h1         1 FLI       0.061700
     79 H28         -6.3600     2.4980    -1.7420 hc         1 FLI       0.049033
     80 H28A        -7.4500     1.1310    -2.0550 hc         1 FLI       0.049033
     81 H28B        -8.1130     2.6760    -1.5230 hc         1 FLI       0.049033
     82 H29          5.1360     2.1450    -3.1120 hc         1 FLI       0.045367
     83 H29A         4.2810     3.6730    -2.8670 hc         1 FLI       0.045367
     84 H29B         6.0300     3.6430    -2.8450 hc         1 FLI       0.045367
     85 H2P         -1.5610     0.0240    -0.4430 hc         1 FLI       0.037700
     86 H2PA        -1.5780    -1.4960    -1.3510 hc         1 FLI       0.037700
     87 H3P         -1.4860    -0.2020    -3.4990 hc         1 FLI       0.038200
     88 H3PA        -1.4040     1.3010    -2.5760 hc         1 FLI       0.038200
     89 H4P          0.7290     0.5180    -1.4940 hc         1 FLI       0.037700
     90 H4PA         0.6410    -0.9830    -2.4160 hc         1 FLI       0.037700
     91 H5P          0.7830     0.3540    -4.5610 hc         1 FLI       0.035700
     92 H5PA         0.9390     1.8300    -3.6060 hc         1 FLI       0.035700
     93 H6P          2.9120    -0.5340    -3.5800 hc         1 FLI       0.031700
     94 H6PA         3.1750     1.0480    -4.3480 hc         1 FLI       0.031700
     95 H6PB         3.0590     0.9260    -2.5770 hc         1 FLI       0.031700
     96 HOA3        -3.3340    -3.8770    -0.4230 ho         1 FLI       0.478000
     97 HOA5        -1.3760    -5.0810     0.8280 ho         1 FLI       0.485000
     98 HOA7         1.1000    -5.1070     1.0580 ho         1 FLI       0.487000
     99 HOA9         3.4020    -3.8750     0.2760 ho         1 FLI       0.488000
    100 HOB1         5.6730    -2.5760    -0.3770 ho         1 FLI       0.480000
    101 HOB3         7.9690    -1.3090    -0.4320 ho         1 FLI       0.450000
    102 HOB5         6.4870     3.5130     1.0340 ho         1 FLI       0.450000
@<TRIPOS>BOND
     1     1     2 2   
     2     1     3 1   
     3     1    33 1   
     4     3     4 1   
     5     3    21 1   
     6     3    45 1   
     7     4     5 1   
     8     4    38 1   
     9     4    46 1   
    10     5     6 1   
    11     5    47 1   
    12     5    48 1   
    13     6     7 1   
    14     6    39 1   
    15     6    49 1   
    16     7     8 1   
    17     7    50 1   
    18     7    51 1   
    19     8     9 1   
    20     8    40 1   
    21     8    52 1   
    22     9    10 1   
    23     9    53 1   
    24     9    54 1   
    25    10    11 1   
    26    10    41 1   
    27    10    55 1   
    28    11    12 1   
    29    11    56 1   
    30    11    57 1   
    31    12    13 1   
    32    12    42 1   
    33    12    58 1   
    34    13    14 1   
    35    13    59 1   
    36    13    60 1   
    37    14    15 1   
    38    14    43 1   
    39    14    61 1   
    40    15    16 1   
    41    15    62 1   
    42    15    63 1   
    43    16    17 1   
    44    16    44 1   
    45    16    64 1   
    46    17    18 2   
    47    17    31 1   
    48    18    19 1   
    49    18    65 1   
    50    19    20 2   
    51    19    66 1   
    52    20    22 1   
    53    20    67 1   
    54    21    32 1   
    55    21    68 1   
    56    21    69 1   
    57    22    23 2   
    58    22    70 1   
    59    23    24 1   
    60    23    71 1   
    61    24    25 2   
    62    24    72 1   
    63    25    26 1   
    64    25    73 1   
    65    26    27 2   
    66    26    74 1   
    67    27    28 1   
    68    27    75 1   
    69    28    29 1   
    70    28    76 1   
    71    28    77 1   
    72    29    30 1   
    73    29    33 1   
    74    29    78 1   
    75    30    79 1   
    76    30    80 1   
    77    30    81 1   
    78    31    82 1   
    79    31    83 1   
    80    31    84 1   
    81    32    34 1   
    82    32    85 1   
    83    32    86 1   
    84    34    35 1   
    85    34    87 1   
    86    34    88 1   
    87    35    36 1   
    88    35    89 1   
    89    35    90 1   
    90    36    37 1   
    91    36    91 1   
    92    36    92 1   
    93    37    93 1   
    94    37    94 1   
    95    37    95 1   
    96    38    96 1   
    97    39    97 1   
    98    40    98 1   
    99    41    99 1   
   100    42   100 1   
   101    43   101 1   
   102    44   102 1   
@<TRIPOS>SUBSTRUCTURE
     1 FLI         1 TEMP              0 ****  ****    0 ROOT
