@<TRIPOS>MOLECULE
FLI
  102   102     1     0     0
SMALL
bcc


@<TRIPOS>ATOM
      1 C1          -5.6130    -0.2740     0.3700 c          1 FLI       0.653100
      2 O1          -6.3730    -0.8440     1.1170 o          1 FLI      -0.547000
      3 C2          -4.1310    -0.6120     0.2460 c3         1 FLI      -0.104700
      4 C3          -3.8970    -2.1080     0.5250 c3         1 FLI       0.165100
      5 C4          -2.5740    -2.3910     1.2410 c3         1 FLI      -0.147400
      6 C5          -2.4440    -3.8510     1.6730 c3         1 FLI       0.154100
      7 C6          -1.1890    -4.1550     2.4980 c3         1 FLI      -0.108400
      8 C7           0.1610    -4.2480     1.7840 c3         1 FLI       0.159100
      9 C8           0.7230    -2.9430     1.2160 c3         1 FLI      -0.119400
     10 C9           2.2090    -3.0490     0.8960 c3         1 FLI       0.159100
     11 C10          2.7950    -1.7420     0.3650 c3         1 FLI      -0.115400
     12 C11          4.3180    -1.7590     0.3070 c3         1 FLI       0.158100
     13 C12          4.8930    -0.4520    -0.2330 c3         1 FLI      -0.113400
     14 C13          6.3800    -0.2920     0.0540 c3         1 FLI       0.158100
     15 C14          7.0390     0.9380    -0.5740 c3         1 FLI      -0.094400
     16 C15          6.5750     2.3190    -0.0910 c3         1 FLI       0.190300
     17 C16          5.2580     2.7440    -0.7000 c2         1 FLI      -0.146400
     18 C17          4.1630     2.9480     0.0510 ce         1 FLI      -0.127000
     19 C18          2.8450     3.2520    -0.4510 ce         1 FLI      -0.130000
     20 C19          1.7540     3.3650     0.3340 cf         1 FLI      -0.116000
     21 C1P         -3.4790    -0.0640    -1.0310 c3         1 FLI      -0.054400
     22 C20          0.4310     3.5470    -0.1930 cf         1 FLI      -0.133000
     23 C21         -0.6930     3.6190     0.5500 ce         1 FLI      -0.111000
     24 C22         -2.0020     3.6870    -0.0360 ce         1 FLI      -0.135000
     25 C23         -3.1660     3.6530     0.6430 cf         1 FLI      -0.111000
     26 C24         -4.4370     3.5430    -0.0320 cf         1 FLI      -0.133000
     27 C25         -5.6140     3.3230     0.5630 c2         1 FLI      -0.146200
     28 C26         -6.8490     2.9710    -0.1990 c3         1 FLI      -0.050200
     29 C27         -7.1810     1.4840    -0.0420 c3         1 FLI       0.158100
     30 C28         -8.3110     1.0340    -0.9440 c3         1 FLI      -0.109100
     31 C29          5.2890     2.9040    -2.1910 c3         1 FLI      -0.058900
     32 C2P         -1.9680    -0.2560    -1.1100 c3         1 FLI      -0.074400
     33 O30         -5.9700     0.7720    -0.3580 os         1 FLI      -0.426900
     34 C3P         -1.3150     0.5170    -2.2480 c3         1 FLI      -0.073400
     35 C4P          0.1930     0.3030    -2.2820 c3         1 FLI      -0.079400
     36 C5P          0.9010     1.0440    -3.4070 c3         1 FLI      -0.073400
     37 C6P          2.3980     0.7670    -3.4330 c3         1 FLI      -0.094100
     38 OA3         -4.0240    -2.8090    -0.6920 oh         1 FLI      -0.611800
     39 OA5         -2.5780    -4.7410     0.5660 oh         1 FLI      -0.627800
     40 OA7          0.0530    -5.2500     0.7760 oh         1 FLI      -0.627800
     41 OA9          2.3720    -4.1110    -0.0340 oh         1 FLI      -0.636800
     42 OB1          4.7170    -2.8730    -0.4790 oh         1 FLI      -0.631800
     43 OB3          7.0350    -1.4590    -0.4450 oh         1 FLI      -0.627800
     44 OB5          6.5900     2.3130     1.3140 oh         1 FLI      -0.597800
     45 H2          -3.6920    -0.0600     1.0920 hc         1 FLI       0.062700
     46 H3          -4.6800    -2.4330     1.2260 h1         1 FLI       0.052700
     47 H4          -1.7270    -2.0900     0.6300 hc         1 FLI       0.050200
     48 H4A         -2.5420    -1.7720     2.1430 hc         1 FLI       0.050200
     49 H5          -3.2970    -4.0580     2.3310 h1         1 FLI       0.059700
     50 H6          -1.1080    -3.4100     3.2930 hc         1 FLI       0.055700
     51 H6A         -1.3470    -5.1130     3.0020 hc         1 FLI       0.055700
     52 H7           0.8710    -4.5870     2.5550 h1         1 FLI       0.029700
     53 H8           0.1810    -2.6490     0.3120 hc         1 FLI       0.058200
     54 H8A          0.5840    -2.1440     1.9480 hc         1 FLI       0.058200
     55 H9           2.7310    -3.2940     1.8350 h1         1 FLI       0.026700
     56 H10          2.3710    -1.5150    -0.6200 hc         1 FLI       0.059200
     57 H10A         2.4980    -0.9280     1.0300 hc         1 FLI       0.059200
     58 H11          4.6770    -1.8870     1.3420 h1         1 FLI       0.025700
     59 H12          4.6910    -0.3810    -1.3090 hc         1 FLI       0.066200
     60 H12A         4.3650     0.3800     0.2330 hc         1 FLI       0.066200
     61 H13          6.5050    -0.2490     1.1430 h1         1 FLI       0.047700
     62 H14          8.1140     0.8700    -0.3720 hc         1 FLI       0.054200
     63 H14A         6.9340     0.8870    -1.6600 hc         1 FLI       0.054200
     64 H15          7.3250     3.0300    -0.4740 h1         1 FLI       0.035700
     65 H17          4.2340     2.8070     1.1250 ha         1 FLI       0.126000
     66 H18          2.7060     3.3420    -1.5240 ha         1 FLI       0.126000
     67 H19          1.8590     3.2800     1.4120 ha         1 FLI       0.120000
     68 H1P         -3.9500    -0.4980    -1.9160 hc         1 FLI       0.055700
     69 H1PA        -3.6730     1.0090    -1.0700 hc         1 FLI       0.055700
     70 H20          0.3390     3.5890    -1.2760 ha         1 FLI       0.123000
     71 H21         -0.6240     3.5760     1.6340 ha         1 FLI       0.121000
     72 H22         -2.0440     3.7080    -1.1230 ha         1 FLI       0.122000
     73 H23         -3.1590     3.6260     1.7290 ha         1 FLI       0.121000
     74 H24         -4.4000     3.5540    -1.1190 ha         1 FLI       0.123000
     75 H25         -5.6720     3.2890     1.6490 ha         1 FLI       0.120000
     76 H26         -7.7160     3.5360     0.1560 hc         1 FLI       0.056700
     77 H26A        -6.7190     3.2090    -1.2580 hc         1 FLI       0.056700
     78 H27         -7.4450     1.2870     1.0000 h1         1 FLI       0.061700
     79 H28         -8.0710     1.2030    -1.9950 hc         1 FLI       0.049033
     80 H28A        -8.5350    -0.0230    -0.8030 hc         1 FLI       0.049033
     81 H28B        -9.2140     1.5990    -0.7100 hc         1 FLI       0.049033
     82 H29          5.0970     1.9560    -2.7010 hc         1 FLI       0.045367
     83 H29A         4.5520     3.6190    -2.5520 hc         1 FLI       0.045367
     84 H29B         6.2680     3.2490    -2.5270 hc         1 FLI       0.045367
     85 H2P         -1.5100     0.0630    -0.1680 hc         1 FLI       0.037700
     86 H2PA        -1.7260    -1.3130    -1.2360 hc         1 FLI       0.037700
     87 H3P         -1.7530     0.2110    -3.2040 hc         1 FLI       0.038200
     88 H3PA        -1.5290     1.5850    -2.1380 hc         1 FLI       0.038200
     89 H4P          0.6230     0.6170    -1.3240 hc         1 FLI       0.037700
     90 H4PA         0.4050    -0.7690    -2.3690 hc         1 FLI       0.037700
     91 H5P          0.4590     0.7630    -4.3670 hc         1 FLI       0.035700
     92 H5PA         0.7290     2.1200    -3.2980 hc         1 FLI       0.035700
     93 H6P          2.5990    -0.2940    -3.5980 hc         1 FLI       0.031700
     94 H6PA         2.8990     1.3270    -4.2240 hc         1 FLI       0.031700
     95 H6PB         2.8630     1.0420    -2.4850 hc         1 FLI       0.031700
     96 HOA3        -3.5930    -3.6680    -0.5560 ho         1 FLI       0.439000
     97 HOA5        -1.6820    -4.9880     0.2800 ho         1 FLI       0.446000
     98 HOA7         0.8610    -5.1950     0.2420 ho         1 FLI       0.448000
     99 HOA9         3.2950    -4.0890    -0.3300 ho         1 FLI       0.449000
    100 HOB1         5.6810    -2.8230    -0.5560 ho         1 FLI       0.441000
    101 HOB3         7.9180    -1.5060    -0.0660 ho         1 FLI       0.411000
    102 HOB5         6.4650     3.2160     1.6240 ho         1 FLI       0.411000
@<TRIPOS>BOND
     1     1     2 2   
     2     1     3 1   
     3     1    33 1   
     4     3     4 1   
     5     3    21 1   
     6     3    45 1   
     7     4     5 1   
     8     4    38 1   
     9     4    46 1   
    10     5     6 1   
    11     5    47 1   
    12     5    48 1   
    13     6     7 1   
    14     6    39 1   
    15     6    49 1   
    16     7     8 1   
    17     7    50 1   
    18     7    51 1   
    19     8     9 1   
    20     8    40 1   
    21     8    52 1   
    22     9    10 1   
    23     9    53 1   
    24     9    54 1   
    25    10    11 1   
    26    10    41 1   
    27    10    55 1   
    28    11    12 1   
    29    11    56 1   
    30    11    57 1   
    31    12    13 1   
    32    12    42 1   
    33    12    58 1   
    34    13    14 1   
    35    13    59 1   
    36    13    60 1   
    37    14    15 1   
    38    14    43 1   
    39    14    61 1   
    40    15    16 1   
    41    15    62 1   
    42    15    63 1   
    43    16    17 1   
    44    16    44 1   
    45    16    64 1   
    46    17    18 2   
    47    17    31 1   
    48    18    19 1   
    49    18    65 1   
    50    19    20 2   
    51    19    66 1   
    52    20    22 1   
    53    20    67 1   
    54    21    32 1   
    55    21    68 1   
    56    21    69 1   
    57    22    23 2   
    58    22    70 1   
    59    23    24 1   
    60    23    71 1   
    61    24    25 2   
    62    24    72 1   
    63    25    26 1   
    64    25    73 1   
    65    26    27 2   
    66    26    74 1   
    67    27    28 1   
    68    27    75 1   
    69    28    29 1   
    70    28    76 1   
    71    28    77 1   
    72    29    30 1   
    73    29    33 1   
    74    29    78 1   
    75    30    79 1   
    76    30    80 1   
    77    30    81 1   
    78    31    82 1   
    79    31    83 1   
    80    31    84 1   
    81    32    34 1   
    82    32    85 1   
    83    32    86 1   
    84    34    35 1   
    85    34    87 1   
    86    34    88 1   
    87    35    36 1   
    88    35    89 1   
    89    35    90 1   
    90    36    37 1   
    91    36    91 1   
    92    36    92 1   
    93    37    93 1   
    94    37    94 1   
    95    37    95 1   
    96    38    96 1   
    97    39    97 1   
    98    40    98 1   
    99    41    99 1   
   100    42   100 1   
   101    43   101 1   
   102    44   102 1   
@<TRIPOS>SUBSTRUCTURE
     1 FLI         1 TEMP              0 ****  ****    0 ROOT
