@<TRIPOS>MOLECULE
FLJ
   51    55     1     0     0
SMALL
No Charge or Current Charge


@<TRIPOS>ATOM
      1 N3           1.7120     1.5500     0.7200 nc         1 FLJ      -0.759000
      2 C4           1.7300     0.3100     0.2820 cd         1 FLJ       0.679900
      3 C5           2.9380    -0.3640    -0.0310 cd         1 FLJ      -0.180000
      4 C7           5.1480    -0.5280    -0.2910 cd         1 FLJ      -0.059300
      5 C8           4.5040    -1.6720    -0.7180 cc         1 FLJ      -0.039400
      6 C10          6.5800    -0.3260    -0.3160 cd         1 FLJ      -0.156800
      7 N12          8.6870    -0.6630    -0.6700 na         1 FLJ       0.002800
      8 C17         -1.7440    -1.1070     0.3870 ca         1 FLJ       0.098000
      9 C20         -2.6870     1.5280     0.3370 ca         1 FLJ      -0.049000
     10 C21         -1.3070     1.2710     0.2310 ca         1 FLJ      -0.131000
     11 C24         -5.8300    -0.9740    -1.0930 c6         1 FLJ       0.059500
     12 C28         -7.4760    -0.0730     0.5410 c6         1 FLJ       0.059500
     13 C1           4.1600     1.6270     0.4270 cd         1 FLJ      -0.207000
     14 C2           2.9360     2.2090     0.7560 cc         1 FLJ       0.362300
     15 N6           4.1190     0.2590     0.1830 na         1 FLJ       0.174100
     16 N9           3.1370    -1.5750    -0.5440 nc         1 FLJ      -0.276600
     17 C11          7.4330    -1.2360    -0.8740 cc         1 FLJ      -0.143000
     18 N13          8.6460     0.5540     0.0010 nc         1 FLJ      -0.514800
     19 C14          7.3530     0.7360     0.2090 cd         1 FLJ       0.251900
     20 N15          0.5570    -0.3550     0.1470 nu         1 FLJ      -0.919900
     21 C16         -0.8120    -0.0480     0.2620 ca         1 FLJ       0.299000
     22 C18         -3.1220    -0.8540     0.4920 ca         1 FLJ      -0.095000
     23 C19         -3.6130     0.4710     0.4520 ca         1 FLJ      -0.157600
     24 N23         -6.0340    -0.1790     0.1600 n          1 FLJ      -0.410800
     25 C25         -6.7770    -0.5100    -2.2340 c6         1 FLJ       0.130600
     26 O26         -8.1470    -0.4980    -1.7770 os         1 FLJ      -0.444000
     27 C27         -8.3580     0.3800    -0.6500 c6         1 FLJ       0.130600
     28 O29         -5.4540     1.8160     1.1400 o          1 FLJ      -0.594100
     29 C31          2.8440     3.6550     1.1490 c3         1 FLJ      -0.135400
     30 H1           4.9350    -2.5740    -1.1400 h4         1 FLJ       0.230000
     31 H2           9.5760    -1.0660    -0.9660 hn         1 FLJ       0.376000
     32 H3          -3.0370     2.5590     0.3140 ha         1 FLJ       0.134000
     33 H4          -0.6360     2.1130     0.1110 ha         1 FLJ       0.159000
     34 H6          -6.0130    -2.0360    -0.8790 h1         1 FLJ       0.066450
     35 H7          -7.8220    -1.0580     0.8860 h1         1 FLJ       0.066450
     36 H8          -7.6100     0.6220     1.3810 h1         1 FLJ       0.066450
     37 H9           5.0970     2.1540     0.3940 h4         1 FLJ       0.160000
     38 H10          7.2800    -2.1850    -1.3740 h4         1 FLJ       0.162000
     39 H11          7.0390     1.6170     0.7500 h4         1 FLJ       0.042100
     40 H12          0.7490    -1.3370    -0.0310 hn         1 FLJ       0.538000
     41 H13         -3.8000    -1.6940     0.6230 ha         1 FLJ       0.137000
     42 H14         -6.4970     0.5000    -2.5660 h1         1 FLJ       0.054700
     43 H15         -6.6890    -1.1900    -3.0930 h1         1 FLJ       0.054700
     44 H16         -9.4190     0.3520    -0.3640 h1         1 FLJ       0.054700
     45 H17         -8.1060     1.4110    -0.9370 h1         1 FLJ       0.054700
     46 H18          2.2950     4.2290     0.3930 hc         1 FLJ       0.054367
     47 H19          2.3230     3.7680     2.1070 hc         1 FLJ       0.054367
     48 H20          3.8380     4.1040     1.2550 hc         1 FLJ       0.054367
     49 F30         -1.3160    -2.3930     0.4190 f          1 FLJ      -0.182000
     50 C22         -5.0900     0.7850     0.5890 c          1 FLJ       0.623700
     51 H5          -4.7980    -0.8840    -1.4560 h1         1 FLJ       0.066450
@<TRIPOS>BOND
     1     1     2 2   
     2     1    14 1   
     3     2     3 1   
     4     2    20 1   
     5     3    15 1   
     6     3    16 2   
     7     4     5 2   
     8     4     6 1   
     9     4    15 1   
    10     5    16 1   
    11     5    30 1   
    12     6    17 2   
    13     6    19 1   
    14     7    17 1   
    15     7    18 1   
    16     7    31 1   
    17     8    21 ar  
    18     8    22 ar  
    19     8    49 1   
    20     9    10 ar  
    21     9    23 ar  
    22     9    32 1   
    23    10    21 ar  
    24    10    33 1   
    25    11    24 1   
    26    11    25 1   
    27    11    34 1   
    28    11    51 1   
    29    12    24 1   
    30    12    27 1   
    31    12    35 1   
    32    12    36 1   
    33    13    14 2   
    34    13    15 1   
    35    13    37 1   
    36    14    29 1   
    37    17    38 1   
    38    18    19 2   
    39    19    39 1   
    40    20    21 1   
    41    20    40 1   
    42    22    23 ar  
    43    22    41 1   
    44    23    50 1   
    45    24    50 1   
    46    25    26 1   
    47    25    42 1   
    48    25    43 1   
    49    26    27 1   
    50    27    44 1   
    51    27    45 1   
    52    28    50 2   
    53    29    46 1   
    54    29    47 1   
    55    29    48 1   
@<TRIPOS>SUBSTRUCTURE
     1 FLJ         1 TEMP              0 ****  ****    0 ROOT
