@<TRIPOS>MOLECULE
FLJ
   51    55     1     0     0
SMALL
bcc


@<TRIPOS>ATOM
      1 N3           1.5890     1.4480     0.3940 nc         1 FLJ      -0.759000
      2 C4           1.6230     0.1550     0.2680 cd         1 FLJ       0.745200
      3 C5           2.8560    -0.5420     0.0800 cd         1 FLJ      -0.194600
      4 C7           5.0380    -0.6800    -0.1310 cd         1 FLJ      -0.059300
      5 C8           4.4320    -1.9190    -0.2070 cc         1 FLJ       0.010600
      6 C10          6.4290    -0.2940    -0.2230 cd         1 FLJ      -0.222100
      7 N12          8.5240    -0.2020    -0.8070 na         1 FLJ       0.002400
      8 C17         -1.7600    -1.3010     0.5050 ca         1 FLJ       0.062900
      9 C20         -2.6710     1.2710     0.6150 ca         1 FLJ      -0.067000
     10 C21         -1.3100     1.0360     0.4860 ca         1 FLJ      -0.149000
     11 C24         -5.6780    -0.8060    -1.1270 c6         1 FLJ       0.059500
     12 C28         -7.3630     0.0110     0.4050 c6         1 FLJ       0.059500
     13 C1           3.9660     1.5690     0.1710 cd         1 FLJ      -0.239600
     14 C2           2.7560     2.1560     0.3390 cc         1 FLJ       0.427600
     15 N6           4.0030     0.1970     0.0540 na         1 FLJ       0.072700
     16 N9           3.0910    -1.8270    -0.0790 nc         1 FLJ      -0.276600
     17 C11          7.3670    -0.8050    -1.0990 cc         1 FLJ      -0.110300
     18 N13          8.4270     0.6710     0.1880 nc         1 FLJ      -0.514800
     19 C14          7.1630     0.6270     0.5580 cd         1 FLJ       0.317200
     20 N15          0.5110    -0.6280     0.3010 nu         1 FLJ      -0.726300
     21 C16         -0.8180    -0.2690     0.4290 ca         1 FLJ       0.160600
     22 C18         -3.1090    -1.0820     0.6130 ca         1 FLJ      -0.113000
     23 C19         -3.5850     0.2270     0.6590 ca         1 FLJ      -0.157600
     24 N23         -5.9400    -0.1290     0.1350 n          1 FLJ      -0.477800
     25 C25         -6.4460    -0.1190    -2.2460 c6         1 FLJ       0.107400
     26 O26         -7.8240    -0.0330    -1.9680 os         1 FLJ      -0.397600
     27 C27         -8.0600     0.6730    -0.7700 c6         1 FLJ       0.107400
     28 O29         -5.3430     1.3440     1.7440 o          1 FLJ      -0.594100
     29 C31          2.6280     3.6380     0.4810 c3         1 FLJ      -0.135400
     30 H1           4.9310    -2.8670    -0.3420 h4         1 FLJ       0.180000
     31 H2           9.4110    -0.3440    -1.2650 hn         1 FLJ       0.325700
     32 H3          -3.0170     2.2940     0.6690 ha         1 FLJ       0.152000
     33 H4          -0.6240     1.8650     0.4390 ha         1 FLJ       0.177000
     34 H6          -5.9800    -1.8550    -1.0470 h1         1 FLJ       0.066450
     35 H7          -7.7820    -0.9860     0.5730 h1         1 FLJ       0.066450
     36 H8          -7.5140     0.5960     1.3090 h1         1 FLJ       0.066450
     37 H9           4.8970     2.1100     0.1120 h4         1 FLJ       0.178000
     38 H10          7.2780    -1.5330    -1.8890 h4         1 FLJ       0.180000
     39 H11          6.8130     1.2390     1.3770 h4         1 FLJ       0.042100
     40 H12          0.6980    -1.6170     0.2110 hn         1 FLJ       0.482800
     41 H13         -3.7760    -1.9330     0.6760 ha         1 FLJ       0.155000
     42 H14         -6.0210     0.8820    -2.4090 h1         1 FLJ       0.054700
     43 H15         -6.3310    -0.6900    -3.1680 h1         1 FLJ       0.054700
     44 H16         -9.1380     0.6860    -0.6030 h1         1 FLJ       0.054700
     45 H17         -7.7170     1.7140    -0.8600 h1         1 FLJ       0.054700
     46 H18          1.9520     4.0380    -0.2750 hc         1 FLJ       0.054367
     47 H19          2.2130     3.8940     1.4570 hc         1 FLJ       0.054367
     48 H20          3.5900     4.1370     0.3790 hc         1 FLJ       0.054367
     49 F30         -1.3050    -2.5670     0.4730 f          1 FLJ      -0.146900
     50 C22         -5.0300     0.5340     0.8800 c          1 FLJ       0.690700
     51 H5          -4.6200    -0.7830    -1.3720 h1         1 FLJ       0.066450
@<TRIPOS>BOND
     1     1     2 2   
     2     1    14 1   
     3     2     3 1   
     4     2    20 1   
     5     3    15 1   
     6     3    16 2   
     7     4     5 2   
     8     4     6 1   
     9     4    15 1   
    10     5    16 1   
    11     5    30 1   
    12     6    17 2   
    13     6    19 1   
    14     7    17 1   
    15     7    18 1   
    16     7    31 1   
    17     8    21 ar  
    18     8    22 ar  
    19     8    49 1   
    20     9    10 ar  
    21     9    23 ar  
    22     9    32 1   
    23    10    21 ar  
    24    10    33 1   
    25    11    24 1   
    26    11    25 1   
    27    11    34 1   
    28    11    51 1   
    29    12    24 1   
    30    12    27 1   
    31    12    35 1   
    32    12    36 1   
    33    13    14 2   
    34    13    15 1   
    35    13    37 1   
    36    14    29 1   
    37    17    38 1   
    38    18    19 2   
    39    19    39 1   
    40    20    21 1   
    41    20    40 1   
    42    22    23 ar  
    43    22    41 1   
    44    23    50 1   
    45    24    50 1   
    46    25    26 1   
    47    25    42 1   
    48    25    43 1   
    49    26    27 1   
    50    27    44 1   
    51    27    45 1   
    52    28    50 2   
    53    29    46 1   
    54    29    47 1   
    55    29    48 1   
@<TRIPOS>SUBSTRUCTURE
     1 FLJ         1 TEMP              0 ****  ****    0 ROOT
