@<TRIPOS>MOLECULE
FLK
   24    24     1     0     0
SMALL
No Charge or Current Charge


@<TRIPOS>ATOM
      1 C4          -3.6540     1.1550     1.0970 c5         1 FLK       0.043600
      2 C5          -4.6440     0.0980     0.4500 c5         1 FLK       0.043600
      3 N1          -1.5580    -0.5500    -1.2430 nu         1 FLK      -0.729300
      4 N2          -2.3700     0.6680     0.5370 nu         1 FLK      -0.446800
      5 N3          -3.6720    -0.7100    -0.3280 nu         1 FLK      -0.446800
      6 Cl           4.2990     1.1370     0.7370 cl         1 FLK      -0.239000
      7 C2           2.6130     0.4690     0.8350 c3         1 FLK       0.123600
      8 C1           2.2180    -0.2170    -0.4860 c3         1 FLK      -0.164400
      9 C            0.8060    -0.7860    -0.3970 c          1 FLK       0.591100
     10 O            0.5410    -1.7780     0.2670 o          1 FLK      -0.529100
     11 N           -0.1620    -0.1160    -1.1460 ns         1 FLK      -0.439200
     12 C3          -2.4150    -0.3850    -0.2280 cz         1 FLK       0.897600
     13 H1          -3.8910     2.1810     0.7810 h1         1 FLK       0.099200
     14 H2          -3.6760     1.1150     2.1960 h1         1 FLK       0.099200
     15 H3          -5.1650    -0.4940     1.2160 h1         1 FLK       0.099200
     16 H4          -5.3970     0.5830    -0.1870 h1         1 FLK       0.099200
     17 H5          -1.5920     1.2910     0.3710 hn         1 FLK       0.391000
     18 H7           2.5850    -0.2460     1.6690 h1         1 FLK       0.086200
     19 H8           1.9360     1.3040     1.0580 h1         1 FLK       0.086200
     20 H9           2.2850     0.5150    -1.2980 hc         1 FLK       0.090200
     21 H10          2.9170    -1.0420    -0.6680 hc         1 FLK       0.090200
     22 H11          0.1410     0.6920    -1.6970 hn         1 FLK       0.365500
     23 H12         -1.6940    -1.3490    -1.8640 hn         1 FLK       0.396000
     24 H6          -3.9510    -1.2220    -1.1550 hn         1 FLK       0.391000
@<TRIPOS>BOND
     1     1     2 1   
     2     1     4 1   
     3     1    13 1   
     4     1    14 1   
     5     2     5 1   
     6     2    15 1   
     7     2    16 1   
     8     3    11 1   
     9     3    12 2   
    10     3    23 1   
    11     4    12 1   
    12     4    17 1   
    13     5    12 1   
    14     5    24 1   
    15     6     7 1   
    16     7     8 1   
    17     7    18 1   
    18     7    19 1   
    19     8     9 1   
    20     8    20 1   
    21     8    21 1   
    22     9    10 2   
    23     9    11 1   
    24    11    22 1   
@<TRIPOS>SUBSTRUCTURE
     1 FLK         1 TEMP              0 ****  ****    0 ROOT
