@<TRIPOS>MOLECULE
FLK
   24    24     1     0     0
SMALL
abcg2


@<TRIPOS>ATOM
      1 C4          -3.7380     1.1900     0.8880 c5         1 FLK       0.043600
      2 C5          -4.6430     0.1060     0.2920 c5         1 FLK       0.043600
      3 N1          -1.4630    -0.7550    -1.0490 nu         1 FLK      -0.729300
      4 N2          -2.5000     0.9800     0.1450 nu         1 FLK      -0.446800
      5 N3          -3.6640    -0.8300    -0.2520 nu         1 FLK      -0.446800
      6 CL           4.5140     0.8570     0.4630 cl         1 FLK      -0.239000
      7 C2           2.9320     0.0880     0.8330 c3         1 FLK       0.123600
      8 C1           2.0300     0.1790    -0.3790 c3         1 FLK      -0.164400
      9 C            0.6840    -0.4480    -0.1130 c          1 FLK       0.591100
     10 O            0.4350    -1.1630     0.8300 o          1 FLK      -0.529100
     11 N           -0.2610    -0.1220    -1.0490 ns         1 FLK      -0.439200
     12 C3          -2.4970    -0.2220    -0.4040 cz         1 FLK       0.897600
     13 H1          -4.1250     2.1920     0.7260 h1         1 FLK       0.099200
     14 H2          -3.5700     1.0410     1.9560 h1         1 FLK       0.099200
     15 H3          -5.2690    -0.3750     1.0400 h1         1 FLK       0.099200
     16 H4          -5.2780     0.4970    -0.5040 h1         1 FLK       0.099200
     17 H5          -1.6610     1.5120     0.3140 hn         1 FLK       0.391000
     18 H7           3.1380    -0.9410     1.1130 h1         1 FLK       0.086200
     19 H8           2.5170     0.6130     1.6900 h1         1 FLK       0.086200
     20 H9           1.8990     1.2210    -0.6800 hc         1 FLK       0.090200
     21 H10          2.4830    -0.3380    -1.2290 hc         1 FLK       0.090200
     22 H11         -0.0100     0.3630    -1.8990 hn         1 FLK       0.365500
     23 H12         -1.5210    -1.6920    -1.4240 hn         1 FLK       0.396000
     24 H6          -3.9300    -1.6400    -0.7890 hn         1 FLK       0.391000
@<TRIPOS>BOND
     1     1     2 1   
     2     1     4 1   
     3     1    13 1   
     4     1    14 1   
     5     2     5 1   
     6     2    15 1   
     7     2    16 1   
     8     3    11 1   
     9     3    12 2   
    10     3    23 1   
    11     4    12 1   
    12     4    17 1   
    13     5    12 1   
    14     5    24 1   
    15     6     7 1   
    16     7     8 1   
    17     7    18 1   
    18     7    19 1   
    19     8     9 1   
    20     8    20 1   
    21     8    21 1   
    22     9    10 2   
    23     9    11 1   
    24    11    22 1   
@<TRIPOS>SUBSTRUCTURE
     1 FLK         1 TEMP              0 ****  ****    0 ROOT
