@<TRIPOS>MOLECULE
FLM
   17    17     1     0     0
SMALL
No Charge or Current Charge


@<TRIPOS>ATOM
      1 C1           0.6920     0.0130     0.0100 ca         1 FLM      -0.183300
      2 C2           0.0330    -0.0040     1.2590 ca         1 FLM       0.316000
      3 C3          -0.0950     0.0160    -1.1640 ca         1 FLM       0.208000
      4 C4           2.2240     0.0250    -0.0720 c3         1 FLM      -0.037800
      5 C5          -1.3680    -0.0150     1.3250 ca         1 FLM      -0.198000
      6 N6           0.7410    -0.0110     2.4310 nv         1 FLM      -1.073000
      7 C7          -1.4960     0.0040    -1.0940 ca         1 FLM      -0.196000
      8 F8           0.4890     0.0280    -2.3840 f          1 FLM      -0.185000
      9 C9          -2.1380    -0.0100     0.1520 ca         1 FLM      -0.048000
     10 HC41         2.6470    -0.8870     0.3650 hc         1 FLM       0.044367
     11 HC42         2.5940     0.0900    -1.1020 hc         1 FLM       0.044367
     12 HC43         2.6400     0.8820     0.4700 hc         1 FLM       0.044367
     13 HC5         -1.8680    -0.0260     2.2900 ha         1 FLM       0.115000
     14 HN61         0.2590    -0.1800     3.3110 hn         1 FLM       0.451000
     15 HN62         1.7480    -0.1530     2.4090 hn         1 FLM       0.451000
     16 HC7         -2.0830     0.0070    -2.0090 ha         1 FLM       0.132000
     17 HC9         -3.2250    -0.0190     0.2100 ha         1 FLM       0.114000
@<TRIPOS>BOND
     1     1     2 ar  
     2     1     3 ar  
     3     1     4 1   
     4     2     5 ar  
     5     2     6 1   
     6     3     7 ar  
     7     3     8 1   
     8     4    10 1   
     9     4    11 1   
    10     4    12 1   
    11     5     9 ar  
    12     5    13 1   
    13     6    14 1   
    14     6    15 1   
    15     7     9 ar  
    16     7    16 1   
    17     9    17 1   
@<TRIPOS>SUBSTRUCTURE
     1 FLM         1 TEMP              0 ****  ****    0 ROOT
