@<TRIPOS>MOLECULE
FLM
   17    17     1     0     0
SMALL
bcc


@<TRIPOS>ATOM
      1 C1           0.6920     0.0150     0.0080 ca         1 FLM      -0.183300
      2 C2           0.0400     0.0170     1.2570 ca         1 FLM       0.177600
      3 C3          -0.1090    -0.0040    -1.1210 ca         1 FLM       0.172900
      4 C4           2.1900     0.0430    -0.0660 c3         1 FLM      -0.037800
      5 C5          -1.3590     0.0060     1.3100 ca         1 FLM      -0.216000
      6 N6           0.7810     0.0860     2.4160 nv         1 FLM      -0.824200
      7 C7          -1.4910    -0.0140    -1.0960 ca         1 FLM      -0.214000
      8 F8           0.4930    -0.0130    -2.3270 f          1 FLM      -0.149900
      9 C9          -2.1080    -0.0060     0.1470 ca         1 FLM      -0.066000
     10 HC41         2.6290    -0.8830     0.3140 hc         1 FLM       0.044367
     11 HC42         2.5500     0.1750    -1.0830 hc         1 FLM       0.044367
     12 HC43         2.5950     0.8600     0.5340 hc         1 FLM       0.044367
     13 HC5         -1.8550     0.0060     2.2740 ha         1 FLM       0.133000
     14 HN61         0.2910    -0.1690     3.2580 hn         1 FLM       0.395800
     15 HN62         1.7040    -0.3150     2.3890 hn         1 FLM       0.395800
     16 HC7         -2.0610    -0.0280    -2.0150 ha         1 FLM       0.150000
     17 HC9         -3.1880    -0.0150     0.2080 ha         1 FLM       0.132000
@<TRIPOS>BOND
     1     1     2 ar  
     2     1     3 ar  
     3     1     4 1   
     4     2     5 ar  
     5     2     6 1   
     6     3     7 ar  
     7     3     8 1   
     8     4    10 1   
     9     4    11 1   
    10     4    12 1   
    11     5     9 ar  
    12     5    13 1   
    13     6    14 1   
    14     6    15 1   
    15     7     9 ar  
    16     7    16 1   
    17     9    17 1   
@<TRIPOS>SUBSTRUCTURE
     1 FLM         1 TEMP              0 ****  ****    0 ROOT
