@<TRIPOS>MOLECULE
FLN
   27    29     1     0     0
SMALL
No Charge or Current Charge


@<TRIPOS>ATOM
      1 O1          -0.1990     0.7830    -0.0580 os         1 FLN      -0.217200
      2 C8A         -1.5720     0.7290    -0.0560 ca         1 FLN       0.152100
      3 C4A         -2.2400    -0.4990     0.0680 ca         1 FLN      -0.227600
      4 C4          -1.4340    -1.7470     0.1990 c          1 FLN       0.597900
      5 C3           0.0130    -1.5590     0.1830 cc         1 FLN      -0.390200
      6 C2           0.6070    -0.3210     0.0580 cd         1 FLN       0.209900
      7 C1           2.0640    -0.0300     0.0320 ca         1 FLN      -0.074800
      8 C11          2.5340     1.3000    -0.1030 ca         1 FLN      -0.072500
      9 C10          3.9110     1.5790    -0.1280 ca         1 FLN      -0.117500
     10 C9           4.8450     0.5380    -0.0190 ca         1 FLN      -0.087000
     11 C5           4.3970    -0.7840     0.1150 ca         1 FLN      -0.117500
     12 C6           3.0200    -1.0670     0.1400 ca         1 FLN      -0.072500
     13 O4          -1.9460    -2.8520     0.3110 o          1 FLN      -0.543100
     14 C12         -3.6510    -0.5280     0.0680 ca         1 FLN      -0.025000
     15 C13         -4.3780     0.6690    -0.0570 ca         1 FLN      -0.147000
     16 C7          -3.7040     1.8960    -0.1820 ca         1 FLN      -0.058000
     17 C8          -2.2990     1.9230    -0.1810 ca         1 FLN      -0.142000
     18 H3           0.5800    -2.4740     0.2790 ha         1 FLN       0.214000
     19 H2           1.8380     2.1310    -0.1900 ha         1 FLN       0.124500
     20 H1           4.2540     2.6070    -0.2330 ha         1 FLN       0.119000
     21 H4           5.9110     0.7560    -0.0390 ha         1 FLN       0.117000
     22 H5           5.1190    -1.5940     0.2000 ha         1 FLN       0.119000
     23 H6           2.7130    -2.1030     0.2460 ha         1 FLN       0.124500
     24 H9          -4.1850    -1.4720     0.1630 ha         1 FLN       0.139000
     25 H10         -5.4660     0.6450    -0.0580 ha         1 FLN       0.122000
     26 H7          -4.2680     2.8220    -0.2780 ha         1 FLN       0.119000
     27 H8          -1.7730     2.8690    -0.2760 ha         1 FLN       0.133000
@<TRIPOS>BOND
     1     1     2 1   
     2     1     6 1   
     3     2     3 ar  
     4     2    17 ar  
     5     3     4 1   
     6     3    14 ar  
     7     4     5 1   
     8     4    13 2   
     9     5     6 2   
    10     5    18 1   
    11     6     7 1   
    12     7     8 ar  
    13     7    12 ar  
    14     8     9 ar  
    15     8    19 1   
    16     9    10 ar  
    17     9    20 1   
    18    10    11 ar  
    19    10    21 1   
    20    11    12 ar  
    21    11    22 1   
    22    12    23 1   
    23    14    15 ar  
    24    14    24 1   
    25    15    16 ar  
    26    15    25 1   
    27    16    17 ar  
    28    16    26 1   
    29    17    27 1   
@<TRIPOS>SUBSTRUCTURE
     1 FLN         1 TEMP              0 ****  ****    0 ROOT
