@<TRIPOS>MOLECULE
FLN
   27    29     1     0     0
SMALL
abcg2


@<TRIPOS>ATOM
      1 O1          -0.1810     0.7970     0.0560 os         1 FLN      -0.217200
      2 C8A         -1.5310     0.7140     0.0330 ca         1 FLN       0.152100
      3 C4A         -2.1850    -0.5140    -0.0030 ca         1 FLN      -0.227600
      4 C4          -1.3970    -1.7540    -0.0310 c          1 FLN       0.597900
      5 C3           0.0330    -1.5450    -0.0350 cc         1 FLN      -0.390200
      6 C2           0.5740    -0.3080     0.0170 cd         1 FLN       0.209900
      7 C1           2.0110    -0.0110     0.0210 ca         1 FLN      -0.074800
      8 C11          2.4850     1.2290    -0.4140 ca         1 FLN      -0.072500
      9 C10          3.8460     1.4900    -0.4260 ca         1 FLN      -0.117500
     10 C9           4.7490     0.5270     0.0020 ca         1 FLN      -0.087000
     11 C5           4.2840    -0.7050     0.4450 ca         1 FLN      -0.117500
     12 C6           2.9250    -0.9720     0.4570 ca         1 FLN      -0.072500
     13 O4          -1.9160    -2.8620    -0.0610 o          1 FLN      -0.543100
     14 C12         -3.5830    -0.5250    -0.0180 ca         1 FLN      -0.025000
     15 C13         -4.2920     0.6560     0.0020 ca         1 FLN      -0.147000
     16 C7          -3.6120     1.8760     0.0380 ca         1 FLN      -0.058000
     17 C8          -2.2330     1.9150     0.0540 ca         1 FLN      -0.142000
     18 H3           0.6800    -2.4080    -0.0970 ha         1 FLN       0.214000
     19 H2           1.8010     1.9920    -0.7590 ha         1 FLN       0.124500
     20 H1           4.2010     2.4510    -0.7740 ha         1 FLN       0.119000
     21 H4           5.8110     0.7360    -0.0070 ha         1 FLN       0.117000
     22 H5           4.9800    -1.4580     0.7910 ha         1 FLN       0.119000
     23 H6           2.5800    -1.9280     0.8280 ha         1 FLN       0.124500
     24 H9          -4.1000    -1.4760    -0.0480 ha         1 FLN       0.139000
     25 H10         -5.3730     0.6410    -0.0090 ha         1 FLN       0.122000
     26 H7          -4.1690     2.8030     0.0550 ha         1 FLN       0.119000
     27 H8          -1.6980     2.8560     0.0840 ha         1 FLN       0.133000
@<TRIPOS>BOND
     1     1     2 1   
     2     1     6 1   
     3     2     3 ar  
     4     2    17 ar  
     5     3     4 1   
     6     3    14 ar  
     7     4     5 1   
     8     4    13 2   
     9     5     6 2   
    10     5    18 1   
    11     6     7 1   
    12     7     8 ar  
    13     7    12 ar  
    14     8     9 ar  
    15     8    19 1   
    16     9    10 ar  
    17     9    20 1   
    18    10    11 ar  
    19    10    21 1   
    20    11    12 ar  
    21    11    22 1   
    22    12    23 1   
    23    14    15 ar  
    24    14    24 1   
    25    15    16 ar  
    26    15    25 1   
    27    16    17 ar  
    28    16    26 1   
    29    17    27 1   
@<TRIPOS>SUBSTRUCTURE
     1 FLN         1 TEMP              0 ****  ****    0 ROOT
