@<TRIPOS>MOLECULE
FLP
   30    31     1     0     0
SMALL
No Charge or Current Charge


@<TRIPOS>ATOM
      1 C            0.8570     0.4380    -4.7420 ca         1 FLP      -0.119000
      2 C1           0.8790     0.5830    -3.3430 ca         1 FLP      -0.100000
      3 C2          -0.1800     0.0890    -2.5400 cp         1 FLP       0.006000
      4 C3          -1.2670    -0.5440    -3.1920 ca         1 FLP      -0.100000
      5 C4          -1.2890    -0.6910    -4.5900 ca         1 FLP      -0.119000
      6 C5          -0.2260    -0.2010    -5.3650 ca         1 FLP      -0.127000
      7 C6          -0.1720     0.2490    -1.0510 cp         1 FLP      -0.130000
      8 C7          -1.3470     0.6590    -0.3740 ca         1 FLP      -0.083000
      9 C8          -1.3630     0.8190     1.0210 ca         1 FLP      -0.149000
     10 C9          -0.2090     0.5720     1.7880 ca         1 FLP       0.044700
     11 C10          0.9630     0.1510     1.1290 ca         1 FLP      -0.123000
     12 C11          0.9820    -0.0070    -0.2660 ca         1 FLP       0.171000
     13 C12         -0.2520     0.7540     3.3070 c3         1 FLP      -0.180400
     14 C13          0.9460     1.5670     3.8600 c3         1 FLP      -0.056100
     15 C14         -0.4000    -0.6080     4.0190 c          1 FLP       0.726000
     16 O            0.4990    -1.4290     3.9100 o          1 FLP      -0.720000
     17 O1          -1.4290    -0.8180     4.6460 o          1 FLP      -0.720000
     18 F            2.1250    -0.4440    -0.8430 f          1 FLP      -0.198000
     19 H            1.6790     0.8240    -5.3400 ha         1 FLP       0.101000
     20 H1           1.7180     1.0940    -2.8780 ha         1 FLP       0.117500
     21 H3          -2.0950    -0.9350    -2.6050 ha         1 FLP       0.117500
     22 H4          -2.1310    -1.1850    -5.0710 ha         1 FLP       0.101000
     23 H5          -0.2440    -0.3130    -6.4470 ha         1 FLP       0.098000
     24 H7          -2.2520     0.8680    -0.9390 ha         1 FLP       0.096000
     25 H8          -2.2820     1.1390     1.5080 ha         1 FLP       0.107000
     26 H10          1.8630    -0.0690     1.6940 ha         1 FLP       0.143000
     27 H12         -1.1480     1.3390     3.5490 hc         1 FLP       0.039700
     28 H131         1.8930     1.0300     3.7340 hc         1 FLP       0.019033
     29 H132         1.0260     2.5320     3.3450 hc         1 FLP       0.019033
     30 H133         0.8110     1.7630     4.9300 hc         1 FLP       0.019033
@<TRIPOS>BOND
     1     1     2 ar  
     2     1     6 ar  
     3     1    19 1   
     4     2     3 ar  
     5     2    20 1   
     6     3     4 ar  
     7     3     7 1   
     8     4     5 ar  
     9     4    21 1   
    10     5     6 ar  
    11     5    22 1   
    12     6    23 1   
    13     7     8 ar  
    14     7    12 ar  
    15     8     9 ar  
    16     8    24 1   
    17     9    10 ar  
    18     9    25 1   
    19    10    11 ar  
    20    10    13 1   
    21    11    12 ar  
    22    11    26 1   
    23    12    18 1   
    24    13    14 1   
    25    13    15 1   
    26    13    27 1   
    27    14    28 1   
    28    14    29 1   
    29    14    30 1   
    30    15    16 1   
    31    15    17 1   
@<TRIPOS>SUBSTRUCTURE
     1 FLP         1 TEMP              0 ****  ****    0 ROOT
