@<TRIPOS>MOLECULE
FLP
   30    31     1     0     0
SMALL
abcg2


@<TRIPOS>ATOM
      1 C            0.9110     0.4630    -4.6620 ca         1 FLP      -0.119000
      2 C1           0.9130     0.5870    -3.2800 ca         1 FLP      -0.100000
      3 C2          -0.1470     0.0910    -2.5190 cp         1 FLP       0.006000
      4 C3          -1.2070    -0.5300    -3.1800 ca         1 FLP      -0.100000
      5 C4          -1.2100    -0.6540    -4.5620 ca         1 FLP      -0.119000
      6 C5          -0.1490    -0.1590    -5.3080 ca         1 FLP      -0.127000
      7 C6          -0.1840     0.2380    -1.0500 cp         1 FLP      -0.130000
      8 C7          -1.3180     0.7200    -0.3990 ca         1 FLP      -0.083000
      9 C8          -1.3630     0.8480     0.9820 ca         1 FLP      -0.149000
     10 C9          -0.2770     0.4940     1.7770 ca         1 FLP       0.044700
     11 C10          0.8610     0.0030     1.1400 ca         1 FLP      -0.123000
     12 C11          0.8860    -0.1120    -0.2320 ca         1 FLP       0.171000
     13 C12         -0.3150     0.6690     3.2670 c3         1 FLP      -0.180400
     14 C13          0.7470     1.6690     3.7340 c3         1 FLP      -0.056100
     15 C14         -0.1930    -0.6640     4.0580 c          1 FLP       0.726000
     16 O           -0.0430    -1.7180     3.4140 o          1 FLP      -0.720000
     17 O1          -0.2650    -0.5530     5.2970 o          1 FLP      -0.720000
     18 F            1.9960    -0.6170    -0.8030 f          1 FLP      -0.198000
     19 H            1.7390     0.8600    -5.2340 ha         1 FLP       0.101000
     20 H1           1.7380     1.0950    -2.7970 ha         1 FLP       0.117500
     21 H3          -2.0320    -0.9340    -2.6060 ha         1 FLP       0.117500
     22 H4          -2.0400    -1.1450    -5.0540 ha         1 FLP       0.101000
     23 H5          -0.1490    -0.2560    -6.3860 ha         1 FLP       0.098000
     24 H7          -2.1750     1.0190    -0.9900 ha         1 FLP       0.096000
     25 H8          -2.2600     1.2400     1.4460 ha         1 FLP       0.107000
     26 H10          1.7320    -0.2990     1.7080 ha         1 FLP       0.143000
     27 H12         -1.2920     1.0920     3.5260 hc         1 FLP       0.039700
     28 H131         1.7570     1.3150     3.5170 hc         1 FLP       0.019033
     29 H132         0.6220     2.6340     3.2410 hc         1 FLP       0.019033
     30 H133         0.6720     1.8270     4.8090 hc         1 FLP       0.019033
@<TRIPOS>BOND
     1     1     2 ar  
     2     1     6 ar  
     3     1    19 1   
     4     2     3 ar  
     5     2    20 1   
     6     3     4 ar  
     7     3     7 1   
     8     4     5 ar  
     9     4    21 1   
    10     5     6 ar  
    11     5    22 1   
    12     6    23 1   
    13     7     8 ar  
    14     7    12 ar  
    15     8     9 ar  
    16     8    24 1   
    17     9    10 ar  
    18     9    25 1   
    19    10    11 ar  
    20    10    13 1   
    21    11    12 ar  
    22    11    26 1   
    23    12    18 1   
    24    13    14 1   
    25    13    15 1   
    26    13    27 1   
    27    14    28 1   
    28    14    29 1   
    29    14    30 1   
    30    15    16 1   
    31    15    17 1   
@<TRIPOS>SUBSTRUCTURE
     1 FLP         1 TEMP              0 ****  ****    0 ROOT
