@<TRIPOS>MOLECULE
FLQ
   66    70     1     0     0
SMALL
bcc


@<TRIPOS>ATOM
      1 C1          -1.5650     3.9830     5.5640 ca         1 FLQ       0.181600
      2 O1          -2.2160     3.8850     6.7340 oh         1 FLQ      -0.489600
      3 C2          -2.1500     4.7420     4.5630 ca         1 FLQ      -0.232000
      4 C3          -1.5190     4.8430     3.3300 ca         1 FLQ       0.191600
      5 O2          -2.1630     5.5950     2.4060 os         1 FLQ      -0.226200
      6 C4          -1.6700     5.6930     1.1510 ca         1 FLQ       0.191600
      7 C5          -2.4420     6.4320     0.2610 ca         1 FLQ      -0.232000
      8 C6          -2.0180     6.5810    -1.0500 ca         1 FLQ       0.181600
      9 O3          -2.7140     7.2790    -1.9590 oh         1 FLQ      -0.489600
     10 C7          -0.8220     5.9860    -1.4680 ca         1 FLQ      -0.222000
     11 C8          -0.0800     5.2570    -0.5660 ca         1 FLQ      -0.021500
     12 C9          -0.4810     5.0940     0.7620 ca         1 FLQ      -0.191800
     13 C10          0.3590     4.3200     1.7330 c5         1 FLQ       0.340700
     14 C11         -0.3150     4.2050     3.0680 ca         1 FLQ      -0.191800
     15 C12          0.2530     3.4550     4.0960 ca         1 FLQ      -0.021500
     16 C13         -0.3440     3.3450     5.3320 ca         1 FLQ      -0.222000
     17 C16         -4.8570    -0.0440     1.8710 c3         1 FLQ      -0.068400
     18 C17         -3.9350    -0.0080     0.6570 c3         1 FLQ      -0.073400
     19 C18         -3.2610    -1.3440     0.3780 c3         1 FLQ      -0.101400
     20 C19         -2.2820    -1.2910    -0.7920 c3         1 FLQ       0.108000
     21 O4           0.2560    -1.5870     0.4710 o          1 FLQ      -0.591100
     22 N1          -1.2530    -0.2860    -0.6070 ns         1 FLQ      -0.566900
     23 C15          0.6570     0.7490     0.4070 ca         1 FLQ      -0.120600
     24 C24          2.0550     0.7010     0.3290 ca         1 FLQ      -0.089000
     25 C25          2.8230     1.8030     0.6590 ca         1 FLQ      -0.067000
     26 C26          2.1560     2.9390     1.0960 ca         1 FLQ      -0.183600
     27 C27          0.7850     2.9820     1.1940 ca         1 FLQ      -0.108300
     28 C28          0.0070     1.8960     0.8480 ca         1 FLQ      -0.063000
     29 O8           1.6370     5.0060     1.9000 os         1 FLQ      -0.397900
     30 C29          2.6780     4.2380     1.5450 c          1 FLQ       0.744200
     31 O9           3.8130     4.6230     1.6130 o          1 FLQ      -0.555500
     32 C20         -5.2690     1.3390     2.3680 c3         1 FLQ      -0.093400
     33 C21         -4.1310     2.1660     2.9670 c3         1 FLQ       0.102000
     34 N2          -3.5550     1.5820     4.1560 ns         1 FLQ      -0.573900
     35 C22         -2.4220     0.8590     4.1860 c          1 FLQ       0.671100
     36 O5          -1.7530     0.6040     3.1940 o          1 FLQ      -0.611100
     37 C23         -2.0440     0.3320     5.5510 c3         1 FLQ      -0.182100
     38 HO1         -1.7060     3.3610     7.3620 ho         1 FLQ       0.431500
     39 H2          -3.0980     5.2380     4.7300 ha         1 FLQ       0.156500
     40 H5          -3.3680     6.8800     0.6030 ha         1 FLQ       0.156500
     41 HO3         -3.5220     7.6360    -1.5720 ho         1 FLQ       0.431500
     42 H7          -0.4900     6.0970    -2.4910 ha         1 FLQ       0.147000
     43 H8           0.8400     4.7980    -0.9070 ha         1 FLQ       0.145000
     44 H12          1.1890     2.9370     3.9270 ha         1 FLQ       0.145000
     45 H13          0.1240     2.7520     6.1080 ha         1 FLQ       0.147000
     46 H161        -5.7550    -0.6180     1.6250 hc         1 FLQ       0.041200
     47 H162        -4.3690    -0.5910     2.6830 hc         1 FLQ       0.041200
     48 H171        -4.5010     0.3170    -0.2230 hc         1 FLQ       0.035700
     49 H172        -3.1600     0.7430     0.8190 hc         1 FLQ       0.035700
     50 H181        -4.0110    -2.1110     0.1650 hc         1 FLQ       0.054700
     51 H182        -2.7270    -1.6680     1.2750 hc         1 FLQ       0.054700
     52 H191        -2.8070    -1.0490    -1.7170 h1         1 FLQ       0.053700
     53 H192        -1.8090    -2.2610    -0.9390 h1         1 FLQ       0.053700
     54 HN1         -1.4650     0.6490    -0.9130 hn         1 FLQ       0.312500
     55 H4           2.5370    -0.2090    -0.0020 ha         1 FLQ       0.156000
     56 H3           3.9020     1.7730     0.5860 ha         1 FLQ       0.157000
     57 H6          -1.0680     1.9280     0.9640 ha         1 FLQ       0.157000
     58 H201        -5.7060     1.9140     1.5450 hc         1 FLQ       0.041200
     59 H202        -6.0580     1.2370     3.1190 hc         1 FLQ       0.041200
     60 H211        -3.3350     2.3170     2.2390 h1         1 FLQ       0.052200
     61 H212        -4.5030     3.1590     3.2280 h1         1 FLQ       0.052200
     62 HN2         -4.0360     1.7440     5.0250 hn         1 FLQ       0.311500
     63 H231        -2.3410    -0.7150     5.6290 hc         1 FLQ       0.057700
     64 H232        -0.9640     0.3760     5.6770 hc         1 FLQ       0.057700
     65 H233        -2.5140     0.8730     6.3710 hc         1 FLQ       0.057700
     66 C14         -0.1310    -0.4890     0.0970 c          1 FLQ       0.685700
@<TRIPOS>BOND
     1     1     2 1   
     2     1     3 ar  
     3     1    16 ar  
     4     2    38 1   
     5     3     4 ar  
     6     3    39 1   
     7     4     5 1   
     8     4    14 ar  
     9     5     6 1   
    10     6     7 ar  
    11     6    12 ar  
    12     7     8 ar  
    13     7    40 1   
    14     8     9 1   
    15     8    10 ar  
    16     9    41 1   
    17    10    11 ar  
    18    10    42 1   
    19    11    12 ar  
    20    11    43 1   
    21    12    13 1   
    22    13    14 1   
    23    13    27 1   
    24    13    29 1   
    25    14    15 ar  
    26    15    16 ar  
    27    15    44 1   
    28    16    45 1   
    29    17    18 1   
    30    17    32 1   
    31    17    46 1   
    32    17    47 1   
    33    18    19 1   
    34    18    48 1   
    35    18    49 1   
    36    19    20 1   
    37    19    50 1   
    38    19    51 1   
    39    20    22 1   
    40    20    52 1   
    41    20    53 1   
    42    21    66 2   
    43    22    54 1   
    44    22    66 1   
    45    23    24 ar  
    46    23    28 ar  
    47    23    66 1   
    48    24    25 ar  
    49    24    55 1   
    50    25    26 ar  
    51    25    56 1   
    52    26    27 ar  
    53    26    30 1   
    54    27    28 ar  
    55    28    57 1   
    56    29    30 1   
    57    30    31 2   
    58    32    33 1   
    59    32    58 1   
    60    32    59 1   
    61    33    34 1   
    62    33    60 1   
    63    33    61 1   
    64    34    35 1   
    65    34    62 1   
    66    35    36 2   
    67    35    37 1   
    68    37    63 1   
    69    37    64 1   
    70    37    65 1   
@<TRIPOS>SUBSTRUCTURE
     1 FLQ         1 TEMP              0 ****  ****    0 ROOT
