@<TRIPOS>MOLECULE
FLQ
   66    70     1     0     0
SMALL
No Charge or Current Charge


@<TRIPOS>ATOM
      1 C1          -1.8540     4.1400     5.3780 ca         1 FLQ       0.181600
      2 O1          -2.5870     4.0740     6.5230 oh         1 FLQ      -0.528600
      3 C2          -2.4200     4.6940     4.2260 ca         1 FLQ      -0.214000
      4 C3          -1.6690     4.7820     3.0440 ca         1 FLQ       0.191600
      5 O2          -2.2550     5.3530     1.9420 os         1 FLQ      -0.226200
      6 C4          -1.5550     5.6510     0.7990 ca         1 FLQ       0.191600
      7 C5          -2.2030     6.3870    -0.2050 ca         1 FLQ      -0.214000
      8 C6          -1.5210     6.7120    -1.3840 ca         1 FLQ       0.181600
      9 O3          -2.1410     7.4270    -2.3630 oh         1 FLQ      -0.528600
     10 C7          -0.1950     6.3010    -1.5610 ca         1 FLQ      -0.204000
     11 C8           0.4550     5.5610    -0.5590 ca         1 FLQ      -0.003500
     12 C9          -0.2200     5.2320     0.6350 ca         1 FLQ      -0.191800
     13 C10          0.4650     4.4030     1.7120 c5         1 FLQ       0.363900
     14 C11         -0.3440     4.3090     2.9990 ca         1 FLQ      -0.191800
     15 C12          0.2130     3.7380     4.1640 ca         1 FLQ      -0.003500
     16 C13         -0.5380     3.6610     5.3500 ca         1 FLQ      -0.204000
     17 C16         -4.8680    -0.4390     2.1950 c3         1 FLQ      -0.068400
     18 C17         -4.1290    -0.0870     0.8840 c3         1 FLQ      -0.073400
     19 C18         -3.4310    -1.3040     0.2280 c3         1 FLQ      -0.101400
     20 C19         -2.5990    -0.9360    -1.0190 c3         1 FLQ       0.108000
     21 O4           0.1360    -1.4830    -0.3170 o          1 FLQ      -0.591100
     22 N1          -1.5340     0.0150    -0.6900 ns         1 FLQ      -0.499900
     23 C15          0.5850     0.8040     0.2590 ca         1 FLQ      -0.120600
     24 C24          1.9940     0.6420     0.3560 ca         1 FLQ      -0.071000
     25 C25          2.8120     1.6830     0.8430 ca         1 FLQ      -0.049000
     26 C26          2.1900     2.8720     1.2460 ca         1 FLQ      -0.183600
     27 C27          0.8340     3.0360     1.1870 ca         1 FLQ      -0.108300
     28 C28          0.0000     2.0240     0.6910 ca         1 FLQ      -0.045000
     29 O8           1.7570     5.0170     2.0260 os         1 FLQ      -0.421100
     30 C29          2.7760     4.1220     1.7780 c          1 FLQ       0.668700
     31 O9           3.9640     4.3380     1.9670 o          1 FLQ      -0.480000
     32 C20         -5.4810     0.7870     2.9190 c3         1 FLQ      -0.093400
     33 C21         -4.4630     1.8130     3.4750 c3         1 FLQ       0.102000
     34 N2          -3.5900     1.2420     4.5060 ns         1 FLQ      -0.506900
     35 C22         -2.3000     0.8080     4.3020 c          1 FLQ       0.604100
     36 O5          -1.7400     0.8670     3.2200 o          1 FLQ      -0.611100
     37 C23         -1.6190     0.2420     5.5410 c3         1 FLQ      -0.182100
     38 HO1         -2.0080     3.7450     7.2430 ho         1 FLQ       0.470500
     39 H2          -3.4400     5.0660     4.2470 ha         1 FLQ       0.138500
     40 H5          -3.2320     6.6990    -0.0550 ha         1 FLQ       0.138500
     41 HO3         -3.0540     7.6280    -2.0690 ho         1 FLQ       0.470500
     42 H7           0.3320     6.5510    -2.4780 ha         1 FLQ       0.129000
     43 H8           1.4830     5.2410    -0.7160 ha         1 FLQ       0.127000
     44 H12          1.2310     3.3550     4.1550 ha         1 FLQ       0.127000
     45 H13         -0.0890     3.2250     6.2380 ha         1 FLQ       0.129000
     46 H161        -5.6720    -1.1490     1.9640 hc         1 FLQ       0.041200
     47 H162        -4.1830    -0.9590     2.8750 hc         1 FLQ       0.041200
     48 H171        -4.8420     0.3480     0.1720 hc         1 FLQ       0.035700
     49 H172        -3.3820     0.6850     1.0910 hc         1 FLQ       0.035700
     50 H181        -4.1880    -2.0460    -0.0560 hc         1 FLQ       0.054700
     51 H182        -2.7730    -1.7860     0.9620 hc         1 FLQ       0.054700
     52 H191        -3.2520    -0.4830    -1.7760 h1         1 FLQ       0.053700
     53 H192        -2.1610    -1.8440    -1.4530 h1         1 FLQ       0.053700
     54 HN1         -1.7690     0.9970    -0.6610 hn         1 FLQ       0.312500
     55 H4           2.4590    -0.2900     0.0390 ha         1 FLQ       0.138000
     56 H3           3.8930     1.5650     0.9030 ha         1 FLQ       0.139000
     57 H6          -1.0750     2.1860     0.6750 ha         1 FLQ       0.139000
     58 H201        -6.1590     1.3040     2.2290 hc         1 FLQ       0.041200
     59 H202        -6.1020     0.4280     3.7490 hc         1 FLQ       0.041200
     60 H211        -3.8560     2.2290     2.6610 h1         1 FLQ       0.052200
     61 H212        -5.0150     2.6480     3.9260 h1         1 FLQ       0.052200
     62 HN2         -3.9530     1.1560     5.4470 hn         1 FLQ       0.311500
     63 H231        -2.2090    -0.6040     5.9110 hc         1 FLQ       0.057700
     64 H232        -0.5780    -0.0470     5.3550 hc         1 FLQ       0.057700
     65 H233        -1.7030     0.9620     6.3620 hc         1 FLQ       0.057700
     66 C14         -0.2650    -0.3270    -0.2730 c          1 FLQ       0.618700
@<TRIPOS>BOND
     1     1     2 1   
     2     1     3 ar  
     3     1    16 ar  
     4     2    38 1   
     5     3     4 ar  
     6     3    39 1   
     7     4     5 1   
     8     4    14 ar  
     9     5     6 1   
    10     6     7 ar  
    11     6    12 ar  
    12     7     8 ar  
    13     7    40 1   
    14     8     9 1   
    15     8    10 ar  
    16     9    41 1   
    17    10    11 ar  
    18    10    42 1   
    19    11    12 ar  
    20    11    43 1   
    21    12    13 1   
    22    13    14 1   
    23    13    27 1   
    24    13    29 1   
    25    14    15 ar  
    26    15    16 ar  
    27    15    44 1   
    28    16    45 1   
    29    17    18 1   
    30    17    32 1   
    31    17    46 1   
    32    17    47 1   
    33    18    19 1   
    34    18    48 1   
    35    18    49 1   
    36    19    20 1   
    37    19    50 1   
    38    19    51 1   
    39    20    22 1   
    40    20    52 1   
    41    20    53 1   
    42    21    66 2   
    43    22    54 1   
    44    22    66 1   
    45    23    24 ar  
    46    23    28 ar  
    47    23    66 1   
    48    24    25 ar  
    49    24    55 1   
    50    25    26 ar  
    51    25    56 1   
    52    26    27 ar  
    53    26    30 1   
    54    27    28 ar  
    55    28    57 1   
    56    29    30 1   
    57    30    31 2   
    58    32    33 1   
    59    32    58 1   
    60    32    59 1   
    61    33    34 1   
    62    33    60 1   
    63    33    61 1   
    64    34    35 1   
    65    34    62 1   
    66    35    36 2   
    67    35    37 1   
    68    37    63 1   
    69    37    64 1   
    70    37    65 1   
@<TRIPOS>SUBSTRUCTURE
     1 FLQ         1 TEMP              0 ****  ****    0 ROOT
