@<TRIPOS>MOLECULE
FLR
   30    31     1     0     0
SMALL
No Charge or Current Charge


@<TRIPOS>ATOM
      1 C1          -3.3990    -1.2440    -0.0070 ca         1 FLR      -0.099500
      2 C           -4.7950    -1.0970     0.0720 ca         1 FLR      -0.119500
      3 C5          -5.3590     0.1770     0.2470 ca         1 FLR      -0.126000
      4 C4          -4.5260     1.3030     0.3450 ca         1 FLR      -0.119500
      5 C3          -3.1300     1.1550     0.2650 ca         1 FLR      -0.099500
      6 C2          -2.5390    -0.1210     0.0810 cp         1 FLR       0.005000
      7 C6          -1.0530    -0.2910     0.0060 cp         1 FLR      -0.131000
      8 C11         -0.2280     0.5670    -0.7680 ca         1 FLR       0.174000
      9 C10          1.1620     0.3850    -0.8210 ca         1 FLR      -0.146000
     10 F           -0.7690     1.5680    -1.4990 f          1 FLR      -0.199000
     11 C7          -0.4210    -1.3400     0.7180 ca         1 FLR      -0.079000
     12 C8           0.9710    -1.5190     0.6650 ca         1 FLR      -0.137000
     13 C9           1.7780    -0.6610    -0.1060 ca         1 FLR       0.050700
     14 C12          3.2930    -0.8810    -0.1500 c3         1 FLR      -0.180400
     15 C13          3.8810    -0.8270    -1.5830 c3         1 FLR      -0.050100
     16 C14          4.0140     0.0950     0.8040 c          1 FLR       0.725000
     17 O1           4.6050    -0.3750     1.7660 o          1 FLR      -0.719500
     18 O            3.9480     1.2950     0.5790 o          1 FLR      -0.719500
     19 H1          -2.9780    -2.2360    -0.1490 ha         1 FLR       0.118500
     20 H2          -5.4380    -1.9710    -0.0030 ha         1 FLR       0.101000
     21 H3          -6.4390     0.2910     0.3090 ha         1 FLR       0.098000
     22 H4          -4.9600     2.2900     0.4870 ha         1 FLR       0.101000
     23 H5          -2.4990     2.0350     0.3580 ha         1 FLR       0.118500
     24 H6           1.7580     1.0670    -1.4190 ha         1 FLR       0.139000
     25 H7          -1.0170    -2.0150     1.3280 ha         1 FLR       0.097000
     26 H8           1.4230    -2.3310     1.2290 ha         1 FLR       0.110000
     27 H9           3.4940    -1.8940     0.2180 hc         1 FLR       0.036700
     28 H10          4.9420    -1.1030    -1.5680 hc         1 FLR       0.017367
     29 H11          3.3560    -1.5300    -2.2400 hc         1 FLR       0.017367
     30 H12          3.8020     0.1770    -2.0160 hc         1 FLR       0.017367
@<TRIPOS>BOND
     1     1     2 ar  
     2     1     6 ar  
     3     1    19 1   
     4     2     3 ar  
     5     2    20 1   
     6     3     4 ar  
     7     3    21 1   
     8     4     5 ar  
     9     4    22 1   
    10     5     6 ar  
    11     5    23 1   
    12     6     7 1   
    13     7     8 ar  
    14     7    11 ar  
    15     8     9 ar  
    16     8    10 1   
    17     9    13 ar  
    18     9    24 1   
    19    11    12 ar  
    20    11    25 1   
    21    12    13 ar  
    22    12    26 1   
    23    13    14 1   
    24    14    15 1   
    25    14    16 1   
    26    14    27 1   
    27    15    28 1   
    28    15    29 1   
    29    15    30 1   
    30    16    17 1   
    31    16    18 1   
@<TRIPOS>SUBSTRUCTURE
     1 FLR         1 TEMP              0 ****  ****    0 ROOT
