@<TRIPOS>MOLECULE
FLR
   30    31     1     0     0
SMALL
bcc


@<TRIPOS>ATOM
      1 C1          -3.3380    -1.2020    -0.1920 ca         1 FLR      -0.117500
      2 C           -4.7180    -1.0740    -0.1150 ca         1 FLR      -0.137500
      3 C5          -5.2860     0.1350     0.2630 ca         1 FLR      -0.144000
      4 C4          -4.4640     1.2120     0.5680 ca         1 FLR      -0.137500
      5 C3          -3.0840     1.0850     0.4900 ca         1 FLR      -0.117500
      6 C2          -2.5030    -0.1260     0.1090 cp         1 FLR       0.005000
      7 C6          -1.0360    -0.2940     0.0510 cp         1 FLR      -0.131000
      8 C11         -0.2070     0.5850    -0.6360 ca         1 FLR       0.138900
      9 C10          1.1610     0.4350    -0.7090 ca         1 FLR      -0.164000
     10 F           -0.7640     1.6260    -1.2840 f          1 FLR      -0.163900
     11 C7          -0.4050    -1.3710     0.6740 ca         1 FLR      -0.097000
     12 C8           0.9700    -1.5400     0.6170 ca         1 FLR      -0.155000
     13 C9           1.7780    -0.6390    -0.0700 ca         1 FLR       0.050700
     14 C12          3.2700    -0.8110    -0.1480 c3         1 FLR      -0.180400
     15 C13          3.7440    -0.9840    -1.5870 c3         1 FLR      -0.050100
     16 C14          3.9820     0.3370     0.6200 c          1 FLR       0.935600
     17 O1           3.5020     0.6160     1.7350 o          1 FLR      -0.824800
     18 O            4.9710     0.8640     0.0800 o          1 FLR      -0.824800
     19 H1          -2.9060    -2.1450    -0.5030 ha         1 FLR       0.136500
     20 H2          -5.3480    -1.9200    -0.3580 ha         1 FLR       0.119000
     21 H3          -6.3620     0.2370     0.3220 ha         1 FLR       0.116000
     22 H4          -4.8970     2.1560     0.8720 ha         1 FLR       0.119000
     23 H5          -2.4600     1.9280     0.7550 ha         1 FLR       0.136500
     24 H6           1.7410     1.1600    -1.2700 ha         1 FLR       0.157000
     25 H7          -1.0080    -2.0810     1.2260 ha         1 FLR       0.115000
     26 H8           1.4210    -2.3880     1.1170 ha         1 FLR       0.128000
     27 H9           3.5180    -1.7310     0.3950 hc         1 FLR       0.036700
     28 H10          4.8120    -1.1920    -1.6190 hc         1 FLR       0.017367
     29 H11          3.2280    -1.8170    -2.0690 hc         1 FLR       0.017367
     30 H12          3.5660    -0.0910    -2.1870 hc         1 FLR       0.017367
@<TRIPOS>BOND
     1     1     2 ar  
     2     1     6 ar  
     3     1    19 1   
     4     2     3 ar  
     5     2    20 1   
     6     3     4 ar  
     7     3    21 1   
     8     4     5 ar  
     9     4    22 1   
    10     5     6 ar  
    11     5    23 1   
    12     6     7 1   
    13     7     8 ar  
    14     7    11 ar  
    15     8     9 ar  
    16     8    10 1   
    17     9    13 ar  
    18     9    24 1   
    19    11    12 ar  
    20    11    25 1   
    21    12    13 ar  
    22    12    26 1   
    23    13    14 1   
    24    14    15 1   
    25    14    16 1   
    26    14    27 1   
    27    15    28 1   
    28    15    29 1   
    29    15    30 1   
    30    16    17 1   
    31    16    18 1   
@<TRIPOS>SUBSTRUCTURE
     1 FLR         1 TEMP              0 ****  ****    0 ROOT
