@<TRIPOS>MOLECULE
FLS
   47    49     1     0     0
SMALL
bcc


@<TRIPOS>ATOM
      1 C1           4.7050    -1.5540    -0.1810 c3         1 FLS       0.279500
      2 C2           4.6420    -3.0650     0.0200 c3         1 FLS      -0.109100
      3 C3           6.0460    -1.0250     0.3120 c3         1 FLS      -0.210600
      4 C7          -1.9180     0.9800     0.6800 c          1 FLS       0.699700
      5 C8          -2.2580     0.5380    -0.6710 cc         1 FLS      -0.048100
      6 S4           6.1930     0.7560     0.0900 s6         1 FLS       1.004000
      7 O28          5.5410     1.4370     1.2100 o          1 FLS      -0.578300
      8 N17          3.6300    -0.8640     0.4980 nu         1 FLS      -0.873900
      9 C14          2.4030    -0.6830    -0.0110 ca         1 FLS       0.962900
     10 N15          1.5110    -0.0960     0.7880 nb         1 FLS      -0.825000
     11 C10          0.3020     0.1000     0.2980 ca         1 FLS       0.636200
     12 N6          -0.6250     0.7080     1.1020 n          1 FLS      -0.428300
     13 C20         -0.2160     1.1110     2.4430 c3         1 FLS       0.080300
     14 N13          2.1770    -1.0940    -1.2720 nb         1 FLS      -0.781000
     15 C12          0.9680    -0.8910    -1.7410 ca         1 FLS       0.537200
     16 C11         -0.0510    -0.2890    -1.0060 ca         1 FLS      -0.426400
     17 C9          -1.3710    -0.0690    -1.4780 cd         1 FLS      -0.003200
     18 O18         -3.5130     0.8440    -1.1060 os         1 FLS      -0.206200
     19 C19         -4.5690     0.2220    -0.5130 ca         1 FLS       0.081100
     20 C25         -5.8100     0.8320    -0.6480 ca         1 FLS       0.152900
     21 F26         -5.8840     1.9930    -1.3070 f          1 FLS      -0.121900
     22 C24         -6.9590     0.2760    -0.1300 ca         1 FLS      -0.190000
     23 C23         -6.8460    -0.9240     0.5490 ca         1 FLS       0.135900
     24 F27         -7.9540    -1.4740     1.0670 f          1 FLS      -0.138900
     25 C22         -5.6350    -1.5630     0.7060 ca         1 FLS      -0.157000
     26 C21         -4.4940    -0.9840     0.1640 ca         1 FLS      -0.141000
     27 H1           4.6180    -1.3390    -1.2460 h1         1 FLS       0.105700
     28 H2           5.4470    -3.5610    -0.5230 hc         1 FLS       0.048033
     29 H2A          4.7280    -3.3260     1.0750 hc         1 FLS       0.048033
     30 H2B          3.6950    -3.4530    -0.3540 hc         1 FLS       0.048033
     31 H3           6.2110    -1.2300     1.3720 h1         1 FLS       0.101200
     32 H3A          6.8530    -1.4920    -0.2550 h1         1 FLS       0.101200
     33 H5           8.4600     0.5090    -0.5820 h1         1 FLS       0.104700
     34 H5A          8.1040     2.1110     0.1150 h1         1 FLS       0.104700
     35 H5B          8.2970     0.7010     1.1880 h1         1 FLS       0.104700
     36 HN17         3.7420    -0.6340     1.4730 hn         1 FLS       0.461800
     37 H20         -1.0680     1.5350     2.9600 h1         1 FLS       0.061700
     38 H20A         0.1480     0.2500     2.9970 h1         1 FLS       0.061700
     39 H20B         0.5770     1.8530     2.3880 h1         1 FLS       0.061700
     40 H12          0.7710    -1.2200    -2.7570 h4         1 FLS       0.028100
     41 H9          -1.6480    -0.3800    -2.4780 ha         1 FLS       0.156000
     42 H24         -7.9140     0.7700    -0.2510 ha         1 FLS       0.169000
     43 H22         -5.5700    -2.5020     1.2390 ha         1 FLS       0.153000
     44 H21         -3.5460    -1.4930     0.2740 ha         1 FLS       0.145000
     45 O16         -2.7250     1.5510     1.3920 o          1 FLS      -0.588500
     46 C5           7.9450     1.0380     0.2160 c3         1 FLS      -0.227300
     47 O29          5.7610     1.0920    -1.2670 o          1 FLS      -0.578300
@<TRIPOS>BOND
     1     1     2 1   
     2     1     3 1   
     3     1     8 1   
     4     1    27 1   
     5     2    28 1   
     6     2    29 1   
     7     2    30 1   
     8     3     6 1   
     9     3    31 1   
    10     3    32 1   
    11     4     5 1   
    12     4    12 1   
    13     4    45 2   
    14     5    17 2   
    15     5    18 1   
    16     6     7 2   
    17     6    46 1   
    18     6    47 2   
    19     8     9 1   
    20     8    36 1   
    21     9    10 ar  
    22     9    14 ar  
    23    10    11 ar  
    24    11    12 1   
    25    11    16 ar  
    26    12    13 1   
    27    13    37 1   
    28    13    38 1   
    29    13    39 1   
    30    14    15 ar  
    31    15    16 ar  
    32    15    40 1   
    33    16    17 1   
    34    17    41 1   
    35    18    19 1   
    36    19    20 ar  
    37    19    26 ar  
    38    20    21 1   
    39    20    22 ar  
    40    22    23 ar  
    41    22    42 1   
    42    23    24 1   
    43    23    25 ar  
    44    25    26 ar  
    45    25    43 1   
    46    26    44 1   
    47    33    46 1   
    48    34    46 1   
    49    35    46 1   
@<TRIPOS>SUBSTRUCTURE
     1 FLS         1 TEMP              0 ****  ****    0 ROOT
