@<TRIPOS>MOLECULE
FLS
   47    49     1     0     0
SMALL
No Charge or Current Charge


@<TRIPOS>ATOM
      1 C1           4.7020    -1.4880    -0.2520 c3         1 FLS       0.279500
      2 C2           4.4990    -3.0050    -0.0790 c3         1 FLS      -0.109100
      3 C3           6.0060    -1.0280     0.4100 c3         1 FLS      -0.321400
      4 C7          -2.0740     1.1640     0.6590 c          1 FLS       0.557200
      5 C8          -2.4000     0.7430    -0.7390 cc         1 FLS      -0.048100
      6 S4           6.5220     0.6160    -0.1110 s6         1 FLS       1.084000
      7 O28          5.6770     1.6090     0.5620 o          1 FLS      -0.507500
      8 N17          3.5800    -0.7860     0.3680 nu         1 FLS      -0.929100
      9 C14          2.3150    -0.5730    -0.1540 ca         1 FLS       0.436900
     10 N15          1.4540     0.0200     0.6840 nb         1 FLS      -0.299000
     11 C10          0.2110     0.2480     0.2160 ca         1 FLS       0.307900
     12 N6          -0.7480     0.8820     1.0810 n          1 FLS      -0.361300
     13 C20         -0.3300     1.2590     2.4600 c3         1 FLS       0.080300
     14 N13          2.0750    -0.9660    -1.4180 nb         1 FLS      -0.255000
     15 C12          0.8350    -0.7390    -1.8860 ca         1 FLS       0.208900
     16 C11         -0.1450    -0.1230    -1.0900 ca         1 FLS      -0.295800
     17 C9          -1.4970     0.1330    -1.5750 cd         1 FLS      -0.053200
     18 O18         -3.6470     0.8880    -1.3070 os         1 FLS      -0.206200
     19 C19         -4.6150     0.1910    -0.5940 ca         1 FLS       0.081100
     20 C25         -5.9350     0.6920    -0.5900 ca         1 FLS       0.188000
     21 F26         -6.2280     1.8390    -1.2460 f          1 FLS      -0.157000
     22 C24         -6.9590     0.0200     0.0970 ca         1 FLS      -0.172000
     23 C23         -6.6720    -1.1710     0.7770 ca         1 FLS       0.171000
     24 F27         -7.6560    -1.8200     1.4360 f          1 FLS      -0.174000
     25 C22         -5.3720    -1.6990     0.7670 ca         1 FLS      -0.139000
     26 C21         -4.3420    -1.0290     0.0800 ca         1 FLS      -0.123000
     27 H1           4.7530    -1.2690    -1.3320 h1         1 FLS       0.105700
     28 H2           5.3270    -3.5580    -0.5380 hc         1 FLS       0.048033
     29 H2A          4.4520    -3.2760     0.9820 hc         1 FLS       0.048033
     30 H2B          3.5700    -3.3320    -0.5600 hc         1 FLS       0.048033
     31 H3           5.9310    -1.0240     1.5020 h1         1 FLS       0.101200
     32 H3A          6.8250    -1.6910     0.1090 h1         1 FLS       0.101200
     33 H5           8.7960    -0.0080     0.1110 h1         1 FLS       0.104700
     34 H5A          8.5480     1.7740     0.2660 h1         1 FLS       0.104700
     35 H5B          8.1160     0.6820     1.6380 h1         1 FLS       0.104700
     36 HN17         3.6970    -0.4620     1.3270 hn         1 FLS       0.517000
     37 H20         -1.1550     1.6880     3.0410 h1         1 FLS       0.061700
     38 H20A         0.0350     0.3710     2.9910 h1         1 FLS       0.061700
     39 H20B         0.4780     2.0010     2.4100 h1         1 FLS       0.061700
     40 H12          0.6280    -1.0540    -2.9080 h4         1 FLS       0.028100
     41 H9          -1.7960    -0.1590    -2.5790 ha         1 FLS       0.206000
     42 H24         -7.9680     0.4200     0.0990 ha         1 FLS       0.151000
     43 H22         -5.1650    -2.6310     1.2880 ha         1 FLS       0.135000
     44 H21         -3.3490    -1.4710     0.0680 ha         1 FLS       0.127000
     45 O16         -2.8860     1.7190     1.3910 o          1 FLS      -0.513000
     46 C5           8.1790     0.7830     0.5490 c3         1 FLS      -0.338100
     47 O29          6.6270     0.6220    -1.5750 o          1 FLS      -0.507500
@<TRIPOS>BOND
     1     1     2 1   
     2     1     3 1   
     3     1     8 1   
     4     1    27 1   
     5     2    28 1   
     6     2    29 1   
     7     2    30 1   
     8     3     6 1   
     9     3    31 1   
    10     3    32 1   
    11     4     5 1   
    12     4    12 1   
    13     4    45 2   
    14     5    17 2   
    15     5    18 1   
    16     6     7 2   
    17     6    46 1   
    18     6    47 2   
    19     8     9 1   
    20     8    36 1   
    21     9    10 ar  
    22     9    14 ar  
    23    10    11 ar  
    24    11    12 1   
    25    11    16 ar  
    26    12    13 1   
    27    13    37 1   
    28    13    38 1   
    29    13    39 1   
    30    14    15 ar  
    31    15    16 ar  
    32    15    40 1   
    33    16    17 1   
    34    17    41 1   
    35    18    19 1   
    36    19    20 ar  
    37    19    26 ar  
    38    20    21 1   
    39    20    22 ar  
    40    22    23 ar  
    41    22    42 1   
    42    23    24 1   
    43    23    25 ar  
    44    25    26 ar  
    45    25    43 1   
    46    26    44 1   
    47    33    46 1   
    48    34    46 1   
    49    35    46 1   
@<TRIPOS>SUBSTRUCTURE
     1 FLS         1 TEMP              0 ****  ****    0 ROOT
