@<TRIPOS>MOLECULE
FLT
   30    30     1     0     0
SMALL
No Charge or Current Charge


@<TRIPOS>ATOM
      1 N           -3.0400    -4.5970    29.2820 n8         1 FLT      -0.866800
      2 CA          -2.7690    -4.3570    27.8120 c3         1 FLT       0.014500
      3 CB          -1.2980    -4.7150    27.4690 c3         1 FLT       0.012900
      4 CG          -0.8450    -4.1380    26.1310 ca         1 FLT      -0.145300
      5 CD1         -0.5550    -2.7650    26.0140 ca         1 FLT      -0.095500
      6 CE1         -0.1330    -2.2270    24.7850 ca         1 FLT      -0.200000
      7 CD2         -0.7090    -4.9690    25.0040 ca         1 FLT      -0.095500
      8 CE2         -0.2880    -4.4310    23.7750 ca         1 FLT      -0.200000
      9 CZ           0.0040    -3.0630    23.6540 ca         1 FLT       0.199100
     10 OH           0.4110    -2.6070    22.4130 os         1 FLT      -0.293900
     11 C1           0.7830    -1.2150    22.1300 c3         1 FLT       0.074100
     12 C2           2.0790    -0.7860    22.8820 c          1 FLT       0.943600
     13 F1          -0.2980    -0.3920    22.3670 f          1 FLT      -0.285300
     14 O3           2.1960     0.3720    23.2820 o          1 FLT      -0.841050
     15 O4           2.9170    -1.6370    23.1740 o          1 FLT      -0.841050
     16 C3           1.3030    -1.0640    20.6700 c          1 FLT       0.943600
     17 C           -3.7800    -5.0110    26.7680 c          1 FLT       0.940600
     18 OXT         -3.7940    -6.2320    26.6230 o          1 FLT      -0.841800
     19 H           -3.9610    -4.2160    29.5230 hn         1 FLT       0.290800
     20 H2          -2.3760    -4.0550    29.8420 hn         1 FLT       0.290800
     21 HA1         -2.8630    -3.2700    27.6840 h1         1 FLT       0.011700
     22 HB2         -0.6410    -4.3280    28.2580 hc         1 FLT       0.014200
     23 HB3         -1.1720    -5.8050    27.4830 hc         1 FLT       0.014200
     24 HD1         -0.6560    -2.1120    26.8790 ha         1 FLT       0.099500
     25 HE1          0.0790    -1.1650    24.7310 ha         1 FLT       0.141500
     26 HD2         -0.9300    -6.0320    25.0770 ha         1 FLT       0.099500
     27 HE2         -0.1860    -5.0790    22.9080 ha         1 FLT       0.141500
     28 O           -4.6050    -4.2850    26.2190 o          1 FLT      -0.841800
     29 O1           1.4660     0.0600    20.1970 o          1 FLT      -0.841050
     30 O2           1.4370    -2.0640    19.9630 o          1 FLT      -0.841050
@<TRIPOS>BOND
     1     1     2 1   
     2     1    19 1   
     3     1    20 1   
     4     2     3 1   
     5     2    17 1   
     6     2    21 1   
     7     3     4 1   
     8     3    22 1   
     9     3    23 1   
    10     4     5 ar  
    11     4     7 ar  
    12     5     6 ar  
    13     5    24 1   
    14     6     9 ar  
    15     6    25 1   
    16     7     8 ar  
    17     7    26 1   
    18     8     9 ar  
    19     8    27 1   
    20     9    10 1   
    21    10    11 1   
    22    11    12 1   
    23    11    13 1   
    24    11    16 1   
    25    12    14 1   
    26    12    15 1   
    27    16    29 1   
    28    16    30 1   
    29    17    18 1   
    30    17    28 1   
@<TRIPOS>SUBSTRUCTURE
     1 FLT         1 TEMP              0 ****  ****    0 ROOT
