@<TRIPOS>MOLECULE
FLT
   30    30     1     0     0
SMALL
bcc


@<TRIPOS>ATOM
      1 N           -3.0570    -4.7650    29.1100 n8         1 FLT      -0.866800
      2 CA          -2.7270    -4.2710    27.7750 c3         1 FLT       0.014500
      3 CB          -1.2550    -4.5870    27.4890 c3         1 FLT       0.012900
      4 CG          -0.7980    -4.0460    26.1650 ca         1 FLT      -0.145300
      5 CD1         -0.4740    -2.7020    26.0150 ca         1 FLT      -0.095500
      6 CE1         -0.1050    -2.1590    24.7900 ca         1 FLT      -0.200000
      7 CD2         -0.7270    -4.8490    25.0280 ca         1 FLT      -0.095500
      8 CE2         -0.3440    -4.3320    23.8010 ca         1 FLT      -0.200000
      9 CZ          -0.0270    -2.9800    23.6680 ca         1 FLT       0.199100
     10 OH           0.3020    -2.5810    22.4150 os         1 FLT      -0.293900
     11 C1           0.7870    -1.3050    22.1620 c3         1 FLT       0.074100
     12 C2           2.0300    -0.9340    23.0180 c          1 FLT       0.943600
     13 F1          -0.2520    -0.4090    22.3890 f          1 FLT      -0.285300
     14 O3           2.0500     0.1870    23.5470 o          1 FLT      -0.841050
     15 O4           2.9080    -1.8130    23.0230 o          1 FLT      -0.841050
     16 C3           1.1840    -1.2050    20.6590 c          1 FLT       0.943600
     17 C           -3.6390    -4.9390    26.7150 c          1 FLT       0.940600
     18 OXT         -3.5850    -6.1830    26.6390 o          1 FLT      -0.841800
     19 H           -4.0250    -4.5510    29.3190 hn         1 FLT       0.290800
     20 H2          -2.5170    -4.2450    29.7930 hn         1 FLT       0.290800
     21 HA1         -2.8520    -3.1810    27.6910 h1         1 FLT       0.011700
     22 HB2         -0.6410    -4.1600    28.2900 hc         1 FLT       0.014200
     23 HB3         -1.1170    -5.6700    27.5270 hc         1 FLT       0.014200
     24 HD1         -0.5190    -2.0460    26.8770 ha         1 FLT       0.099500
     25 HE1          0.1180    -1.1030    24.7400 ha         1 FLT       0.141500
     26 HD2         -0.9800    -5.8990    25.1020 ha         1 FLT       0.099500
     27 HE2         -0.2910    -4.9770    22.9330 ha         1 FLT       0.141500
     28 O           -4.3460    -4.1780    26.0240 o          1 FLT      -0.841800
     29 O1           1.3570    -0.0400    20.2630 o          1 FLT      -0.841050
     30 O2           1.3210    -2.2640    20.0320 o          1 FLT      -0.841050
@<TRIPOS>BOND
     1     1     2 1   
     2     1    19 1   
     3     1    20 1   
     4     2     3 1   
     5     2    17 1   
     6     2    21 1   
     7     3     4 1   
     8     3    22 1   
     9     3    23 1   
    10     4     5 ar  
    11     4     7 ar  
    12     5     6 ar  
    13     5    24 1   
    14     6     9 ar  
    15     6    25 1   
    16     7     8 ar  
    17     7    26 1   
    18     8     9 ar  
    19     8    27 1   
    20     9    10 1   
    21    10    11 1   
    22    11    12 1   
    23    11    13 1   
    24    11    16 1   
    25    12    14 1   
    26    12    15 1   
    27    16    29 1   
    28    16    30 1   
    29    17    18 1   
    30    17    28 1   
@<TRIPOS>SUBSTRUCTURE
     1 FLT         1 TEMP              0 ****  ****    0 ROOT
