@<TRIPOS>MOLECULE
FLU
   36    39     1     0     0
SMALL
No Charge or Current Charge


@<TRIPOS>ATOM
      1 C1          -0.3700     0.2160     4.0130 ca         1 FLU       0.182100
      2 O1          -0.4410     0.3720     5.3630 oh         1 FLU      -0.535100
      3 C2           0.8680     0.2480     3.3660 ca         1 FLU      -0.259000
      4 C3           0.9510     0.0820     1.9740 ca         1 FLU       0.249000
      5 O2           2.2260     0.1100     1.4370 os         1 FLU      -0.302000
      6 C4           2.2870    -0.1800     0.0950 cc         1 FLU       0.257000
      7 C5           3.5730    -0.2550    -0.3660 cd         1 FLU      -0.402200
      8 C6           3.8650    -0.5100    -1.7750 c          1 FLU       0.592500
      9 O3           5.0090    -0.5850    -2.1980 o          1 FLU      -0.613100
     10 C7           2.6890    -0.6600    -2.6480 cd         1 FLU      -0.331200
     11 C8           1.3920    -0.5810    -2.1840 cc         1 FLU      -0.057200
     12 C9           1.1620    -0.3570    -0.7770 cc         1 FLU      -0.192800
     13 C10         -0.1090    -0.2640    -0.2470 cd         1 FLU       0.227000
     14 C11         -0.2250    -0.0950     1.2100 ca         1 FLU      -0.139000
     15 C12         -1.4700    -0.1510     1.8820 ca         1 FLU       0.017000
     16 C13         -1.5370     0.0100     3.2750 ca         1 FLU      -0.188000
     17 C14         -1.3280    -0.5550    -1.0420 ca         1 FLU      -0.072000
     18 C15         -1.4450    -1.8080    -1.6840 ca         1 FLU      -0.121000
     19 C16         -2.5980    -2.1410    -2.4110 ca         1 FLU      -0.138000
     20 C17         -3.6530    -1.2240    -2.5060 ca         1 FLU      -0.129000
     21 C18         -3.5500     0.0300    -1.8830 ca         1 FLU      -0.088000
     22 C19         -2.3930     0.3840    -1.1540 ca         1 FLU      -0.113600
     23 C20         -2.3060     1.7740    -0.5570 c          1 FLU       0.707600
     24 O4          -1.2770     2.4150    -0.7130 o          1 FLU      -0.696500
     25 O5          -3.2980     2.2200     0.0030 o          1 FLU      -0.696500
     26 HO1          0.4690     0.5020     5.7040 ho         1 FLU       0.463000
     27 H2           1.7810     0.3940     3.9360 ha         1 FLU       0.125000
     28 H5           4.4320    -0.1230     0.2790 ha         1 FLU       0.194000
     29 H7           2.9150    -0.8310    -3.6940 ha         1 FLU       0.183000
     30 H8           0.5610    -0.6750    -2.8800 ha         1 FLU       0.190000
     31 H12         -2.3970    -0.3340     1.3450 ha         1 FLU       0.138000
     32 H13         -2.4990    -0.0310     3.7800 ha         1 FLU       0.126000
     33 H15         -0.6440    -2.5390    -1.5990 ha         1 FLU       0.100000
     34 H16         -2.6760    -3.1120    -2.8930 ha         1 FLU       0.093000
     35 H17         -4.5490    -1.4810    -3.0670 ha         1 FLU       0.094000
     36 H18         -4.3690     0.7400    -1.9790 ha         1 FLU       0.135000
@<TRIPOS>BOND
     1     1     2 1   
     2     1     3 ar  
     3     1    16 ar  
     4     2    26 1   
     5     3     4 ar  
     6     3    27 1   
     7     4     5 1   
     8     4    14 ar  
     9     5     6 1   
    10     6     7 2   
    11     6    12 1   
    12     7     8 1   
    13     7    28 1   
    14     8     9 2   
    15     8    10 1   
    16    10    11 2   
    17    10    29 1   
    18    11    12 1   
    19    11    30 1   
    20    12    13 2   
    21    13    14 1   
    22    13    17 1   
    23    14    15 ar  
    24    15    16 ar  
    25    15    31 1   
    26    16    32 1   
    27    17    18 ar  
    28    17    22 ar  
    29    18    19 ar  
    30    18    33 1   
    31    19    20 ar  
    32    19    34 1   
    33    20    21 ar  
    34    20    35 1   
    35    21    22 ar  
    36    21    36 1   
    37    22    23 1   
    38    23    24 1   
    39    23    25 1   
@<TRIPOS>SUBSTRUCTURE
     1 FLU         1 TEMP              0 ****  ****    0 ROOT
