@<TRIPOS>MOLECULE
FLU
   36    39     1     0     0
SMALL
bcc


@<TRIPOS>ATOM
      1 C1          -0.3020     0.0090     4.0540 ca         1 FLU       0.182100
      2 O1          -0.3940     0.0970     5.3840 oh         1 FLU      -0.496100
      3 C2           0.9150     0.0420     3.3880 ca         1 FLU      -0.342300
      4 C3           0.9240    -0.0560     2.0050 ca         1 FLU       0.424000
      5 O2           2.1270    -0.0220     1.4080 os         1 FLU      -0.390800
      6 C4           2.2570    -0.1290     0.0680 cc         1 FLU       0.366700
      7 C5           3.5170    -0.1070    -0.4440 cd         1 FLU      -0.352200
      8 C6           3.7440    -0.2160    -1.8630 c          1 FLU       0.592500
      9 O3           4.8770    -0.2020    -2.3610 o          1 FLU      -0.613100
     10 C7           2.5460    -0.3400    -2.6900 cd         1 FLU      -0.281200
     11 C8           1.3060    -0.3630    -2.1590 cc         1 FLU      -0.007200
     12 C9           1.0890    -0.2670    -0.7460 cc         1 FLU      -0.258100
     13 C10         -0.1580    -0.2640    -0.1650 cd         1 FLU       0.227000
     14 C11         -0.2520    -0.1840     1.2600 ca         1 FLU      -0.204300
     15 C12         -1.4640    -0.2170     1.9660 ca         1 FLU      -0.001000
     16 C13         -1.5010    -0.1250     3.3340 ca         1 FLU      -0.206000
     17 C14         -1.3720    -0.5680    -0.9600 ca         1 FLU      -0.072000
     18 C15         -1.6200    -1.9090    -1.2480 ca         1 FLU      -0.139000
     19 C16         -2.7470    -2.2740    -1.9700 ca         1 FLU      -0.156000
     20 C17         -3.6310    -1.2970    -2.4080 ca         1 FLU      -0.147000
     21 C18         -3.3810     0.0360    -2.1220 ca         1 FLU      -0.106000
     22 C19         -2.2560     0.4180    -1.3980 ca         1 FLU      -0.113600
     23 C20         -1.9810     1.8810    -1.0930 c          1 FLU       0.918200
     24 O4          -0.9380     2.1030    -0.4480 o          1 FLU      -0.801800
     25 O5          -2.8060     2.7140    -1.5060 o          1 FLU      -0.801800
     26 HO1          0.4770     0.2000     5.7860 ho         1 FLU       0.424000
     27 H2           1.8490     0.1420     3.9290 ha         1 FLU       0.143000
     28 H5           4.3690    -0.0090     0.2180 ha         1 FLU       0.144000
     29 H7           2.6800    -0.4100    -3.7630 ha         1 FLU       0.133000
     30 H8           0.4430    -0.4500    -2.8060 ha         1 FLU       0.140000
     31 H12         -2.3910    -0.3190     1.4170 ha         1 FLU       0.156000
     32 H13         -2.4430    -0.1500     3.8650 ha         1 FLU       0.144000
     33 H15         -0.9300    -2.6700    -0.9050 ha         1 FLU       0.118000
     34 H16         -2.9320    -3.3170    -2.1880 ha         1 FLU       0.111000
     35 H17         -4.5130    -1.5750    -2.9710 ha         1 FLU       0.112000
     36 H18         -4.0640     0.8020    -2.4640 ha         1 FLU       0.153000
@<TRIPOS>BOND
     1     1     2 1   
     2     1     3 ar  
     3     1    16 ar  
     4     2    26 1   
     5     3     4 ar  
     6     3    27 1   
     7     4     5 1   
     8     4    14 ar  
     9     5     6 1   
    10     6     7 2   
    11     6    12 1   
    12     7     8 1   
    13     7    28 1   
    14     8     9 2   
    15     8    10 1   
    16    10    11 2   
    17    10    29 1   
    18    11    12 1   
    19    11    30 1   
    20    12    13 2   
    21    13    14 1   
    22    13    17 1   
    23    14    15 ar  
    24    15    16 ar  
    25    15    31 1   
    26    16    32 1   
    27    17    18 ar  
    28    17    22 ar  
    29    18    19 ar  
    30    18    33 1   
    31    19    20 ar  
    32    19    34 1   
    33    20    21 ar  
    34    20    35 1   
    35    21    22 ar  
    36    21    36 1   
    37    22    23 1   
    38    23    24 1   
    39    23    25 1   
@<TRIPOS>SUBSTRUCTURE
     1 FLU         1 TEMP              0 ****  ****    0 ROOT
