@<TRIPOS>MOLECULE
FLV
   21    22     1     0     0
SMALL
No Charge or Current Charge


@<TRIPOS>ATOM
      1 OAB         -2.5270     0.2100    -1.4660 o          1 FLV      -0.461100
      2 CAM         -1.3140     0.0990    -1.3010 c          1 FLV       0.574900
      3 CAN         -0.7050     0.0520     0.0900 ca         1 FLV      -0.044600
      4 CAH         -1.5450     0.1370     1.2260 ca         1 FLV      -0.205000
      5 CAI         -1.0100     0.0970     2.5180 ca         1 FLV       0.201100
      6 OAC         -1.8250     0.1790     3.6060 oh         1 FLV      -0.519100
      7 CAF          0.3670    -0.0290     2.6990 ca         1 FLV      -0.200000
      8 CAK          1.2170    -0.1150     1.5930 ca         1 FLV       0.256100
      9 OAE          2.5520    -0.2370     1.8200 oh         1 FLV      -0.534100
     10 CAO          0.7010    -0.0760     0.2770 ca         1 FLV      -0.302600
     11 CAL          1.6260    -0.1700    -0.9140 c          1 FLV       0.620900
     12 OAA          2.8370    -0.2800    -0.7780 o          1 FLV      -0.575100
     13 CAG          1.0160    -0.1220    -2.2440 cc         1 FLV      -0.393200
     14 CAJ         -0.3400     0.0020    -2.4440 cd         1 FLV       0.094900
     15 OAD         -0.8740     0.0430    -3.6930 oh         1 FLV      -0.489100
     16 HAH         -2.6210     0.2360     1.0960 ha         1 FLV       0.140000
     17 HAC         -2.7510     0.2620     3.2930 ho         1 FLV       0.477000
     18 HAF          0.7800    -0.0610     3.7030 ha         1 FLV       0.153000
     19 HAE          2.9750    -0.2820     0.9250 ho         1 FLV       0.521000
     20 HAG          1.7210    -0.1930    -3.0640 ha         1 FLV       0.208000
     21 HAD         -0.1340    -0.0300    -4.3340 ho         1 FLV       0.477000
@<TRIPOS>BOND
     1     1     2 2   
     2     2     3 1   
     3     2    14 1   
     4     3     4 ar  
     5     3    10 ar  
     6     4     5 ar  
     7     4    16 1   
     8     5     6 1   
     9     5     7 ar  
    10     6    17 1   
    11     7     8 ar  
    12     7    18 1   
    13     8     9 1   
    14     8    10 ar  
    15     9    19 1   
    16    10    11 1   
    17    11    12 2   
    18    11    13 1   
    19    13    14 2   
    20    13    20 1   
    21    14    15 1   
    22    15    21 1   
@<TRIPOS>SUBSTRUCTURE
     1 FLV         1 TEMP              0 ****  ****    0 ROOT
