@<TRIPOS>MOLECULE
FLV
   21    22     1     0     0
SMALL
abcg2


@<TRIPOS>ATOM
      1 OAB         -2.4400     0.2090    -1.4840 o          1 FLV      -0.461100
      2 CAM         -1.2560     0.0980    -1.2710 c          1 FLV       0.574900
      3 CAN         -0.6830     0.0520     0.0950 ca         1 FLV      -0.044600
      4 CAH         -1.5390     0.1380     1.1710 ca         1 FLV      -0.205000
      5 CAI         -1.0110     0.0980     2.4690 ca         1 FLV       0.201100
      6 OAC         -1.7900     0.1750     3.5500 oh         1 FLV      -0.519100
      7 CAF          0.3550    -0.0230     2.6690 ca         1 FLV      -0.200000
      8 CAK          1.2180    -0.1100     1.5780 ca         1 FLV       0.256100
      9 OAE          2.5170    -0.2270     1.8210 oh         1 FLV      -0.534100
     10 CAO          0.7020    -0.0750     0.2690 ca         1 FLV      -0.302600
     11 CAL          1.5940    -0.1710    -0.8820 c          1 FLV       0.620900
     12 OAA          2.8150    -0.2850    -0.7350 o          1 FLV      -0.575100
     13 CAG          1.0230    -0.1290    -2.2180 cc         1 FLV      -0.393200
     14 CAJ         -0.3000    -0.0010    -2.4180 cd         1 FLV       0.094900
     15 OAD         -0.9080     0.0510    -3.5900 oh         1 FLV      -0.489100
     16 HAH         -2.6080     0.2320     1.0200 ha         1 FLV       0.140000
     17 HAC         -2.7200     0.2410     3.3030 ho         1 FLV       0.477000
     18 HAF          0.7580    -0.0530     3.6740 ha         1 FLV       0.153000
     19 HAE          2.9780    -0.2830     0.9520 ho         1 FLV       0.521000
     20 HAG          1.7120    -0.2030    -3.0510 ha         1 FLV       0.208000
     21 HAD         -0.2710    -0.0110    -4.3140 ho         1 FLV       0.477000
@<TRIPOS>BOND
     1     1     2 2   
     2     2     3 1   
     3     2    14 1   
     4     3     4 ar  
     5     3    10 ar  
     6     4     5 ar  
     7     4    16 1   
     8     5     6 1   
     9     5     7 ar  
    10     6    17 1   
    11     7     8 ar  
    12     7    18 1   
    13     8     9 1   
    14     8    10 ar  
    15     9    19 1   
    16    10    11 1   
    17    11    12 2   
    18    11    13 1   
    19    13    14 2   
    20    13    20 1   
    21    14    15 1   
    22    15    21 1   
@<TRIPOS>SUBSTRUCTURE
     1 FLV         1 TEMP              0 ****  ****    0 ROOT
