@<TRIPOS>MOLECULE
FLW
   49    51     1     0     0
SMALL
abcg2


@<TRIPOS>ATOM
      1 C14         -6.5340     0.5340     0.2120 ca         1 FLW      -0.174000
      2 C15         -6.1990     1.8750     0.2730 ca         1 FLW       0.175000
      3 C20          6.2330    -1.0730    -0.2770 c3         1 FLW      -0.096900
      4 C21          5.6140    -2.4580    -0.2500 c3         1 FLW       0.164100
      5 C23          5.9950     1.3610     0.3480 c3         1 FLW      -0.096900
      6 C29         -0.0460    -0.0040    -2.8040 c3         1 FLW       0.080300
      7 F28         -5.8040    -1.6920     0.2690 f          1 FLW      -0.157000
      8 C13         -5.5170    -0.3880     0.3310 ca         1 FLW       0.192000
      9 F27         -7.1770     2.7840     0.1540 f          1 FLW      -0.173000
     10 C16         -4.9000     2.2970     0.4540 ca         1 FLW      -0.140000
     11 C17         -3.8970     1.3450     0.5820 ca         1 FLW      -0.120000
     12 C12         -4.1930    -0.0070     0.5170 ca         1 FLW       0.076100
     13 O11         -3.2790    -1.0040     0.6690 os         1 FLW      -0.206200
     14 C9          -1.9830    -0.7350     0.3410 cc         1 FLW      -0.049100
     15 C10         -1.0090    -0.7680     1.2670 cd         1 FLW      -0.053200
     16 C5           0.3350    -0.5640     0.8590 ca         1 FLW      -0.302800
     17 C4           1.4420    -0.5890     1.7070 ca         1 FLW       0.208900
     18 N1           2.6720    -0.3890     1.3000 nb         1 FLW      -0.265000
     19 C8          -1.7140    -0.4940    -1.0740 c          1 FLW       0.557200
     20 O26         -2.6030    -0.4890    -1.9070 o          1 FLW      -0.512000
     21 N7          -0.3870    -0.2680    -1.4120 n          1 FLW      -0.362300
     22 C6           0.6270    -0.3040    -0.4920 ca         1 FLW       0.309900
     23 N3           1.8560    -0.0960    -0.9210 nb         1 FLW      -0.314000
     24 C2           2.8360    -0.1450    -0.0140 ca         1 FLW       0.431900
     25 N18          4.0760     0.0680    -0.4710 nu         1 FLW      -0.913100
     26 C19          5.3060    -0.0020     0.2950 c3         1 FLW       0.240500
     27 C24          5.1730     2.4050     1.0770 c3         1 FLW       0.164100
     28 O25          5.9190     3.6020     1.1370 oh         1 FLW      -0.663000
     29 O22          6.5820    -3.3920    -0.6780 oh         1 FLW      -0.663000
     30 H14         -7.5560     0.2120     0.0670 ha         1 FLW       0.151000
     31 H20          7.1490    -1.0790     0.3200 hc         1 FLW       0.062950
     32 H20A         6.5200    -0.8080    -1.3000 hc         1 FLW       0.062950
     33 H21          5.2680    -2.6770     0.7700 h1         1 FLW       0.023200
     34 H21A         4.7290    -2.4820    -0.8960 h1         1 FLW       0.023200
     35 H23          6.9530     1.2380     0.8620 hc         1 FLW       0.062950
     36 H23A         6.2220     1.7020    -0.6670 hc         1 FLW       0.062950
     37 H29         -0.9530    -0.0030    -3.3950 h1         1 FLW       0.060700
     38 H29A         0.4420     0.9640    -2.8940 h1         1 FLW       0.060700
     39 H29B         0.6270    -0.7720    -3.1810 h1         1 FLW       0.060700
     40 H16         -4.6630     3.3510     0.5030 ha         1 FLW       0.136000
     41 H17         -2.8770     1.6720     0.7390 ha         1 FLW       0.126000
     42 H10         -1.2360    -0.9580     2.3090 ha         1 FLW       0.206000
     43 H4           1.2980    -0.7820     2.7660 h4         1 FLW       0.027100
     44 HN18         4.1530     0.2480    -1.4610 hn         1 FLW       0.507000
     45 H19          5.0280    -0.2890     1.3100 h1         1 FLW       0.089700
     46 H24          4.2190     2.5600     0.5580 h1         1 FLW       0.023200
     47 H24A         4.9290     2.0330     2.0820 h1         1 FLW       0.023200
     48 HO25         5.4020     4.2550     1.6170 ho         1 FLW       0.446500
     49 HO22         6.1710    -4.2610    -0.6920 ho         1 FLW       0.446500
@<TRIPOS>BOND
     1     1     2 ar  
     2     1     8 ar  
     3     1    30 1   
     4     2     9 1   
     5     2    10 ar  
     6     3     4 1   
     7     3    26 1   
     8     3    31 1   
     9     3    32 1   
    10     4    29 1   
    11     4    33 1   
    12     4    34 1   
    13     5    26 1   
    14     5    27 1   
    15     5    35 1   
    16     5    36 1   
    17     6    21 1   
    18     6    37 1   
    19     6    38 1   
    20     6    39 1   
    21     7     8 1   
    22     8    12 ar  
    23    10    11 ar  
    24    10    40 1   
    25    11    12 ar  
    26    11    41 1   
    27    12    13 1   
    28    13    14 1   
    29    14    15 2   
    30    14    19 1   
    31    15    16 1   
    32    15    42 1   
    33    16    17 ar  
    34    16    22 ar  
    35    17    18 ar  
    36    17    43 1   
    37    18    24 ar  
    38    19    20 2   
    39    19    21 1   
    40    21    22 1   
    41    22    23 ar  
    42    23    24 ar  
    43    24    25 1   
    44    25    26 1   
    45    25    44 1   
    46    26    45 1   
    47    27    28 1   
    48    27    46 1   
    49    27    47 1   
    50    28    48 1   
    51    29    49 1   
@<TRIPOS>SUBSTRUCTURE
     1 FLW         1 TEMP              0 ****  ****    0 ROOT
