@<TRIPOS>MOLECULE
FLW
   49    51     1     0     0
SMALL
No Charge or Current Charge


@<TRIPOS>ATOM
      1 C14         -6.4190     1.0280     0.2750 ca         1 FLW      -0.174000
      2 C15         -5.8780     2.3130     0.1400 ca         1 FLW       0.175000
      3 C20          6.4270    -0.8590    -0.4060 c3         1 FLW      -0.096900
      4 C21          6.1940    -2.3830    -0.4230 c3         1 FLW       0.164100
      5 C23          5.6600     1.4290     0.4550 c3         1 FLW      -0.096900
      6 C29         -0.1700    -0.3540    -2.9050 c3         1 FLW       0.080300
      7 F28         -6.1070    -1.2950     0.6630 f          1 FLW      -0.157000
      8 C13         -5.5700    -0.0600     0.5310 ca         1 FLW       0.192000
      9 F27         -6.6930     3.3620    -0.1040 f          1 FLW      -0.173000
     10 C16         -4.4960     2.5190     0.2680 ca         1 FLW      -0.140000
     11 C17         -3.6400     1.4310     0.5240 ca         1 FLW      -0.120000
     12 C12         -4.1740     0.1210     0.6410 ca         1 FLW       0.076100
     13 O11         -3.3840    -0.9910     0.9150 os         1 FLW      -0.206200
     14 C9          -2.1270    -0.8640     0.3650 cc         1 FLW      -0.049100
     15 C10         -1.1270    -0.8620     1.3060 cd         1 FLW      -0.053200
     16 C5           0.2540    -0.6930     0.8700 ca         1 FLW      -0.302800
     17 C4           1.3310    -0.6850     1.7720 ca         1 FLW       0.208900
     18 N1           2.5970    -0.5270     1.3470 nb         1 FLW      -0.265000
     19 C8          -1.8790    -0.7000    -1.1010 c          1 FLW       0.557200
     20 O26         -2.7800    -0.7160    -1.9320 o          1 FLW      -0.512000
     21 N7          -0.5180    -0.5310    -1.4670 n          1 FLW      -0.362300
     22 C6           0.5420    -0.5310    -0.4940 ca         1 FLW       0.309900
     23 N3           1.8110    -0.3740    -0.9180 nb         1 FLW      -0.314000
     24 C2           2.7660    -0.3790     0.0210 ca         1 FLW       0.431900
     25 N18          4.0530    -0.2140    -0.4630 nu         1 FLW      -0.913100
     26 C19          5.3030    -0.0700     0.3050 c3         1 FLW       0.240500
     27 C24          4.6530     2.2330     1.3030 c3         1 FLW       0.164100
     28 O25          5.1270     3.5740     1.4690 oh         1 FLW      -0.663000
     29 O22          7.3160    -3.0340    -1.0310 oh         1 FLW      -0.663000
     30 H14         -7.4900     0.8750     0.1840 ha         1 FLW       0.151000
     31 H20          7.3750    -0.6620     0.1110 hc         1 FLW       0.062950
     32 H20A         6.5460    -0.4930    -1.4330 hc         1 FLW       0.062950
     33 H21          6.0610    -2.7410     0.6070 h1         1 FLW       0.023200
     34 H21A         5.2760    -2.6110    -0.9810 h1         1 FLW       0.023200
     35 H23          6.6460     1.5070     0.9300 hc         1 FLW       0.062950
     36 H23A         5.7490     1.8880    -0.5370 hc         1 FLW       0.062950
     37 H29         -1.0590    -0.3170    -3.5450 h1         1 FLW       0.060700
     38 H29A         0.3850     0.5840    -3.0380 h1         1 FLW       0.060700
     39 H29B         0.4600    -1.1900    -3.2360 h1         1 FLW       0.060700
     40 H16         -4.0890     3.5230     0.1740 ha         1 FLW       0.136000
     41 H17         -2.5760     1.6210     0.6430 ha         1 FLW       0.126000
     42 H10         -1.3720    -0.9760     2.3610 ha         1 FLW       0.206000
     43 H4           1.1820    -0.8050     2.8440 h4         1 FLW       0.027100
     44 HN18         4.1070    -0.0960    -1.4740 hn         1 FLW       0.507000
     45 H19          5.1940    -0.5020     1.3120 h1         1 FLW       0.089700
     46 H24          3.6730     2.2370     0.8060 h1         1 FLW       0.023200
     47 H24A         4.5340     1.7490     2.2810 h1         1 FLW       0.023200
     48 HO25         4.4540     4.0510     2.0040 ho         1 FLW       0.446500
     49 HO22         7.1220    -3.9980    -1.0300 ho         1 FLW       0.446500
@<TRIPOS>BOND
     1     1     2 ar  
     2     1     8 ar  
     3     1    30 1   
     4     2     9 1   
     5     2    10 ar  
     6     3     4 1   
     7     3    26 1   
     8     3    31 1   
     9     3    32 1   
    10     4    29 1   
    11     4    33 1   
    12     4    34 1   
    13     5    26 1   
    14     5    27 1   
    15     5    35 1   
    16     5    36 1   
    17     6    21 1   
    18     6    37 1   
    19     6    38 1   
    20     6    39 1   
    21     7     8 1   
    22     8    12 ar  
    23    10    11 ar  
    24    10    40 1   
    25    11    12 ar  
    26    11    41 1   
    27    12    13 1   
    28    13    14 1   
    29    14    15 2   
    30    14    19 1   
    31    15    16 1   
    32    15    42 1   
    33    16    17 ar  
    34    16    22 ar  
    35    17    18 ar  
    36    17    43 1   
    37    18    24 ar  
    38    19    20 2   
    39    19    21 1   
    40    21    22 1   
    41    22    23 ar  
    42    23    24 ar  
    43    24    25 1   
    44    25    26 1   
    45    25    44 1   
    46    26    45 1   
    47    27    28 1   
    48    27    46 1   
    49    27    47 1   
    50    28    48 1   
    51    29    49 1   
@<TRIPOS>SUBSTRUCTURE
     1 FLW         1 TEMP              0 ****  ****    0 ROOT
