@<TRIPOS>MOLECULE
FLX
   55    57     1     0     0
SMALL
bcc


@<TRIPOS>ATOM
      1 N            0.0800     0.1630     3.7030 ns         1 FLX      -0.513900
      2 C17         -0.9230     0.8550     4.2660 c          1 FLX       0.596600
      3 O5          -1.3440     1.9190     3.8310 o          1 FLX      -0.610100
      4 C18         -1.4990     0.2880     5.4940 cc         1 FLX       0.213200
      5 O6          -1.0320    -0.8830     5.9830 os         1 FLX      -0.312800
      6 C19         -2.4920     0.7590     6.2930 cd         1 FLX      -0.231300
      7 C20         -2.6410    -0.1890     7.3420 cd         1 FLX      -0.295300
      8 C21         -1.7280    -1.1620     7.0980 cc         1 FLX       0.227600
      9 CA           0.6460     0.5350     2.4330 c3         1 FLX       0.013700
     10 CB           1.9950    -0.1620     2.2370 c3         1 FLX      -0.102400
     11 CG           3.0190     0.1080     3.3410 c3         1 FLX      -0.055700
     12 CD1          4.3230    -0.6130     3.0130 c3         1 FLX      -0.084600
     13 CD2          3.2700     1.5970     3.5490 c3         1 FLX      -0.084600
     14 C           -0.3240     0.1980     1.2890 c          1 FLX       0.671100
     15 O           -1.3370    -0.4560     1.4820 o          1 FLX      -0.629100
     16 N1           0.0310     0.7320     0.1120 ns         1 FLX      -0.496900
     17 C1          -0.3840     0.1830    -1.1760 c3         1 FLX      -0.046500
     18 C2          -0.4530     1.3480    -2.1690 c3         1 FLX       0.018800
     19 C3          -1.0240     1.0470    -3.5170 cc         1 FLX      -0.029400
     20 C6          -0.3300     0.6310    -4.7000 ca         1 FLX      -0.057800
     21 C5          -1.2780     0.5690    -5.7450 ca         1 FLX      -0.049200
     22 C7           1.0030     0.3090    -4.9710 ca         1 FLX       0.012000
     23 C4          -2.3290     1.2070    -3.8890 cd         1 FLX      -0.176100
     24 N2          -2.4880     0.9110    -5.2170 na         1 FLX      -0.199400
     25 C10         -0.9270     0.2140    -7.0490 ca         1 FLX      -0.199000
     26 C8           1.3580    -0.0260    -6.2630 ca         1 FLX      -0.204000
     27 C9           0.4010    -0.0740    -7.2930 ca         1 FLX      -0.121000
     28 P1           0.8470    -1.1780    -1.5920 p5         1 FLX       1.110700
     29 O1           0.2950    -1.9020    -2.8210 o          1 FLX      -0.917167
     30 O2           2.1570    -0.4030    -1.8220 o          1 FLX      -0.917167
     31 O3           0.8690    -2.0520    -0.3310 o          1 FLX      -0.917167
     32 HN           0.2950    -0.7590     4.0510 hn         1 FLX       0.324500
     33 H19         -3.0480     1.6720     6.1520 ha         1 FLX       0.167000
     34 H20         -3.3320    -0.1530     8.1670 ha         1 FLX       0.143000
     35 H21         -1.4710    -2.0740     7.6130 h4         1 FLX       0.040100
     36 HA           0.8020     1.6170     2.4290 h1         1 FLX       0.056700
     37 HB1          2.4130     0.1540     1.2770 hc         1 FLX       0.106200
     38 HB2          1.8270    -1.2370     2.1280 hc         1 FLX       0.106200
     39 HG           2.6410    -0.3040     4.2830 hc         1 FLX       0.020700
     40 HD11         5.0530    -0.4880     3.8140 hc         1 FLX       0.025033
     41 HD12         4.1660    -1.6830     2.8700 hc         1 FLX       0.025033
     42 HD13         4.7680    -0.2190     2.0950 hc         1 FLX       0.025033
     43 HD21         3.5920     2.0750     2.6190 hc         1 FLX       0.025033
     44 HD22         2.3810     2.1220     3.9020 hc         1 FLX       0.025033
     45 HD23         4.0540     1.7590     4.2910 hc         1 FLX       0.025033
     46 HN1          0.9560     1.1360     0.0780 hn         1 FLX       0.287500
     47 H1          -1.3860    -0.2330    -1.0510 h1         1 FLX       0.059700
     48 H21A        -1.0500     2.1460    -1.7150 hc         1 FLX       0.016700
     49 H22          0.5560     1.7560    -2.2890 hc         1 FLX       0.016700
     50 H7           1.7260     0.2970    -4.1650 ha         1 FLX       0.204000
     51 H4          -3.1740     1.5300    -3.2990 h4         1 FLX       0.139000
     52 HN2         -3.3560     0.9680    -5.7210 hn         1 FLX       0.263700
     53 H10         -1.6670     0.1700    -7.8390 ha         1 FLX       0.091000
     54 H8           2.3880    -0.2730    -6.4910 ha         1 FLX       0.108000
     55 H9           0.7110    -0.3480    -8.2940 ha         1 FLX       0.086000
@<TRIPOS>BOND
     1     1     2 1   
     2     1     9 1   
     3     1    32 1   
     4     2     3 2   
     5     2     4 1   
     6     4     5 1   
     7     4     6 2   
     8     5     8 1   
     9     6     7 1   
    10     6    33 1   
    11     7     8 2   
    12     7    34 1   
    13     8    35 1   
    14     9    10 1   
    15     9    14 1   
    16     9    36 1   
    17    10    11 1   
    18    10    37 1   
    19    10    38 1   
    20    11    12 1   
    21    11    13 1   
    22    11    39 1   
    23    12    40 1   
    24    12    41 1   
    25    12    42 1   
    26    13    43 1   
    27    13    44 1   
    28    13    45 1   
    29    14    15 2   
    30    14    16 1   
    31    16    17 1   
    32    16    46 1   
    33    17    18 1   
    34    17    28 1   
    35    17    47 1   
    36    18    19 1   
    37    18    48 1   
    38    18    49 1   
    39    19    20 1   
    40    19    23 2   
    41    20    21 ar  
    42    20    22 ar  
    43    21    24 1   
    44    21    25 ar  
    45    22    26 ar  
    46    22    50 1   
    47    23    24 1   
    48    23    51 1   
    49    24    52 1   
    50    25    27 ar  
    51    25    53 1   
    52    26    27 ar  
    53    26    54 1   
    54    27    55 1   
    55    28    29 1   
    56    28    30 1   
    57    28    31 1   
@<TRIPOS>SUBSTRUCTURE
     1 FLX         1 TEMP              0 ****  ****    0 ROOT
