@<TRIPOS>MOLECULE
FLX
   55    57     1     0     0
SMALL
No Charge or Current Charge


@<TRIPOS>ATOM
      1 N           -0.1620     0.2660     3.3720 ns         1 FLX      -0.446900
      2 C17         -0.3720     1.2650     4.3030 c          1 FLX       0.529600
      3 O5           0.3080     2.2840     4.3410 o          1 FLX      -0.610100
      4 C18         -1.5000     0.9730     5.2300 cc         1 FLX       0.103500
      5 O6          -2.2620    -0.1800     5.1740 os         1 FLX      -0.224000
      6 C19         -1.9460     1.7720     6.2490 cd         1 FLX      -0.148000
      7 C20         -3.0250     1.0960     6.8550 cd         1 FLX      -0.212000
      8 C21         -3.1950    -0.0850     6.1830 cc         1 FLX       0.117900
      9 CA           0.8930     0.2550     2.3330 c3         1 FLX       0.013700
     10 CB           2.0850    -0.6490     2.7640 c3         1 FLX      -0.102400
     11 CG           2.8980    -0.1650     3.9980 c3         1 FLX      -0.055700
     12 CD1          3.8880    -1.2550     4.4690 c3         1 FLX      -0.084600
     13 CD2          3.6430     1.1660     3.7360 c3         1 FLX      -0.084600
     14 C            0.2930    -0.2230     0.9770 c          1 FLX       0.604100
     15 O           -0.7790    -0.8150     0.8930 o          1 FLX      -0.629100
     16 N1           1.0630     0.0750    -0.1330 ns         1 FLX      -0.429900
     17 C1           0.7350    -0.2780    -1.5430 c3         1 FLX      -0.204300
     18 C2          -0.3330     0.6880    -2.1200 c3         1 FLX       0.018800
     19 C3          -1.0250     0.1900    -3.3650 cc         1 FLX      -0.029400
     20 C6          -0.8210     0.6330    -4.7190 ca         1 FLX      -0.057800
     21 C5          -1.7030    -0.0430    -5.5160 ca         1 FLX      -0.049200
     22 C7           0.0730     1.5800    -5.2450 ca         1 FLX       0.030000
     23 C4          -2.0470    -0.7540    -3.4280 cd         1 FLX      -0.226100
     24 N2          -2.4730    -0.9130    -4.7690 na         1 FLX      -0.249700
     25 C10         -1.7610     0.1790    -6.8990 ca         1 FLX      -0.181000
     26 C8           0.0350     1.8230    -6.6360 ca         1 FLX      -0.186000
     27 C9          -0.8780     1.1250    -7.4600 ca         1 FLX      -0.103000
     28 P1           2.2710    -0.4640    -2.6070 p5         1 FLX       1.268500
     29 O1           1.9900    -1.3720    -3.7560 o          1 FLX      -0.917167
     30 O2           2.7040     0.8790    -3.0940 o          1 FLX      -0.917167
     31 O3           3.3530    -1.0530    -1.7640 o          1 FLX      -0.917167
     32 HN          -0.8130    -0.5120     3.3980 hn         1 FLX       0.324500
     33 H19         -1.5390     2.7390     6.5300 ha         1 FLX       0.149000
     34 H20         -3.6160     1.4400     7.6970 ha         1 FLX       0.125000
     35 H21         -3.8950    -0.9000     6.3070 h4         1 FLX       0.040100
     36 HA           1.2490     1.2800     2.1700 h1         1 FLX       0.056700
     37 HB1          2.7770    -0.7600     1.9190 hc         1 FLX       0.106200
     38 HB2          1.6950    -1.6560     2.9630 hc         1 FLX       0.106200
     39 HG           2.1990     0.0030     4.8260 hc         1 FLX       0.020700
     40 HD11         4.4270    -0.9280     5.3660 hc         1 FLX       0.025033
     41 HD12         3.3560    -2.1820     4.7170 hc         1 FLX       0.025033
     42 HD13         4.6240    -1.4790     3.6880 hc         1 FLX       0.025033
     43 HD21         4.3500     1.0600     2.9040 hc         1 FLX       0.025033
     44 HD22         2.9460     1.9740     3.4920 hc         1 FLX       0.025033
     45 HD23         4.2070     1.4730     4.6250 hc         1 FLX       0.025033
     46 HN1          1.9470     0.5410     0.0420 hn         1 FLX       0.287500
     47 H1           0.3070    -1.2870    -1.5330 h1         1 FLX       0.059700
     48 H21A        -1.1030     0.8590    -1.3590 hc         1 FLX       0.016700
     49 H22          0.1210     1.6690    -2.3010 hc         1 FLX       0.016700
     50 H7           0.7730     2.1100    -4.6020 ha         1 FLX       0.186000
     51 H4          -2.5010    -1.3120    -2.6150 h4         1 FLX       0.189000
     52 HN2         -3.2020    -1.5310    -5.1140 hn         1 FLX       0.314000
     53 H10         -2.4670    -0.3630    -7.5230 ha         1 FLX       0.073000
     54 H8           0.7130     2.5500    -7.0750 ha         1 FLX       0.090000
     55 H9          -0.9000     1.3180    -8.5300 ha         1 FLX       0.068000
@<TRIPOS>BOND
     1     1     2 1   
     2     1     9 1   
     3     1    32 1   
     4     2     3 2   
     5     2     4 1   
     6     4     5 1   
     7     4     6 2   
     8     5     8 1   
     9     6     7 1   
    10     6    33 1   
    11     7     8 2   
    12     7    34 1   
    13     8    35 1   
    14     9    10 1   
    15     9    14 1   
    16     9    36 1   
    17    10    11 1   
    18    10    37 1   
    19    10    38 1   
    20    11    12 1   
    21    11    13 1   
    22    11    39 1   
    23    12    40 1   
    24    12    41 1   
    25    12    42 1   
    26    13    43 1   
    27    13    44 1   
    28    13    45 1   
    29    14    15 2   
    30    14    16 1   
    31    16    17 1   
    32    16    46 1   
    33    17    18 1   
    34    17    28 1   
    35    17    47 1   
    36    18    19 1   
    37    18    48 1   
    38    18    49 1   
    39    19    20 1   
    40    19    23 2   
    41    20    21 ar  
    42    20    22 ar  
    43    21    24 1   
    44    21    25 ar  
    45    22    26 ar  
    46    22    50 1   
    47    23    24 1   
    48    23    51 1   
    49    24    52 1   
    50    25    27 ar  
    51    25    53 1   
    52    26    27 ar  
    53    26    54 1   
    54    27    55 1   
    55    28    29 1   
    56    28    30 1   
    57    28    31 1   
@<TRIPOS>SUBSTRUCTURE
     1 FLX         1 TEMP              0 ****  ****    0 ROOT
