@<TRIPOS>MOLECULE
FLY
   41    43     1     0     0
SMALL
No Charge or Current Charge


@<TRIPOS>ATOM
      1 C2          -2.4870    -1.4600    -1.2850 ca         1 FLY       0.206900
      2 C3          -1.7140     0.1400     0.3270 ca         1 FLY       0.316900
      3 N1          -3.7390    -0.9850    -1.1670 nb         1 FLY      -0.258000
      4 C4          -1.4210    -0.9210    -0.5430 ca         1 FLY      -0.303800
      5 C5          -0.0690    -1.4450    -0.6790 cc         1 FLY      -0.054200
      6 C6           0.9060    -0.8670     0.1040 cd         1 FLY      -0.048100
      7 C7           0.6570     0.2680     1.0600 c          1 FLY       0.550200
      8 C9          -3.9110     0.0290    -0.3010 ca         1 FLY       0.432900
      9 C11         -6.4380     0.0690    -0.7380 c3         1 FLY       0.247500
     10 C13         -6.9420    -1.1640     0.0380 c3         1 FLY      -0.111100
     11 C14         -7.4680     1.2140    -0.7340 c3         1 FLY      -0.111100
     12 C17          3.2760    -0.5480    -0.2650 ca         1 FLY       0.077100
     13 C18          3.1790     0.6240    -1.0450 ca         1 FLY      -0.117000
     14 C19          4.3150     1.4340    -1.2340 ca         1 FLY      -0.141000
     15 C20          5.5410     1.0720    -0.6520 ca         1 FLY       0.175000
     16 C21          5.6460    -0.0970     0.1150 ca         1 FLY      -0.175000
     17 C22          4.5150    -0.9070     0.3050 ca         1 FLY       0.193000
     18 F24          6.6270     1.8530    -0.8360 f          1 FLY      -0.174000
     19 F23          4.6250    -2.0350     1.0440 f          1 FLY      -0.157000
     20 O16          2.1760    -1.3600    -0.0800 os         1 FLY      -0.208200
     21 O15          1.5400     0.7530     1.7580 o          1 FLY      -0.515000
     22 N8          -0.6760     0.7360     1.1140 n          1 FLY      -0.362300
     23 C25         -1.0180     1.8630     2.0270 c3         1 FLY       0.077300
     24 N10         -2.9690     0.6160     0.4480 nb         1 FLY      -0.319000
     25 N12         -5.1830     0.5540    -0.1490 nu         1 FLY      -0.908100
     26 H2          -2.3380    -2.2830    -1.9830 h4         1 FLY       0.026100
     27 H5           0.1810    -2.2530    -1.3640 ha         1 FLY       0.204000
     28 H11         -6.2720    -0.2200    -1.7870 h1         1 FLY       0.078700
     29 H13         -7.8790    -1.5320    -0.3950 hc         1 FLY       0.045867
     30 H13A        -6.2090    -1.9780    -0.0040 hc         1 FLY       0.045867
     31 H13B        -7.1240    -0.9170     1.0910 hc         1 FLY       0.045867
     32 H14         -7.6880     1.5450     0.2890 hc         1 FLY       0.045867
     33 H14A        -7.0950     2.0720    -1.3050 hc         1 FLY       0.045867
     34 H14B        -8.4070     0.8850    -1.1950 hc         1 FLY       0.045867
     35 H18          2.2350     0.9030    -1.5060 ha         1 FLY       0.127000
     36 H19          4.2470     2.3400    -1.8320 ha         1 FLY       0.135000
     37 H21          6.5980    -0.3750     0.5590 ha         1 FLY       0.151000
     38 H25         -1.6690     1.5000     2.8320 h1         1 FLY       0.061033
     39 H25A        -0.1260     2.3150     2.4770 h1         1 FLY       0.061033
     40 H25B        -1.5460     2.6470     1.4680 h1         1 FLY       0.061033
     41 HN12        -5.2450     1.3200     0.5210 hn         1 FLY       0.506000
@<TRIPOS>BOND
     1     1     3 ar  
     2     1     4 ar  
     3     1    26 1   
     4     2     4 ar  
     5     2    22 1   
     6     2    24 ar  
     7     3     8 ar  
     8     4     5 1   
     9     5     6 2   
    10     5    27 1   
    11     6     7 1   
    12     6    20 1   
    13     7    21 2   
    14     7    22 1   
    15     8    24 ar  
    16     8    25 1   
    17     9    10 1   
    18     9    11 1   
    19     9    25 1   
    20     9    28 1   
    21    10    29 1   
    22    10    30 1   
    23    10    31 1   
    24    11    32 1   
    25    11    33 1   
    26    11    34 1   
    27    12    13 ar  
    28    12    17 ar  
    29    12    20 1   
    30    13    14 ar  
    31    13    35 1   
    32    14    15 ar  
    33    14    36 1   
    34    15    16 ar  
    35    15    18 1   
    36    16    17 ar  
    37    16    37 1   
    38    17    19 1   
    39    22    23 1   
    40    23    38 1   
    41    23    39 1   
    42    23    40 1   
    43    25    41 1   
@<TRIPOS>SUBSTRUCTURE
     1 FLY         1 TEMP              0 ****  ****    0 ROOT
