@<TRIPOS>MOLECULE
FLY
   41    43     1     0     0
SMALL
bcc


@<TRIPOS>ATOM
      1 C2          -2.4760    -1.3390    -1.2580 ca         1 FLY       0.535200
      2 C3          -1.7060     0.1520     0.4090 ca         1 FLY       0.645200
      3 N1          -3.6970    -0.8750    -1.1450 nb         1 FLY      -0.784000
      4 C4          -1.3990    -0.8760    -0.5030 ca         1 FLY      -0.434400
      5 C5          -0.0720    -1.3670    -0.6090 cc         1 FLY      -0.004200
      6 C6           0.8820    -0.8530     0.1860 cd         1 FLY      -0.048100
      7 C7           0.5990     0.2060     1.1490 c          1 FLY       0.692700
      8 C9          -3.8790     0.1070    -0.2410 ca         1 FLY       0.958900
      9 C11         -6.2990     0.1190    -0.7820 c3         1 FLY       0.247500
     10 C13         -6.8380    -1.1450    -0.1200 c3         1 FLY      -0.111100
     11 C14         -7.3400     1.2270    -0.8080 c3         1 FLY      -0.111100
     12 C17          3.1690    -0.5210    -0.1640 ca         1 FLY       0.077100
     13 C18          3.0480     0.5310    -1.0570 ca         1 FLY      -0.135000
     14 C19          4.1520     1.3060    -1.3910 ca         1 FLY      -0.159000
     15 C20          5.3720     1.0030    -0.8260 ca         1 FLY       0.139900
     16 C21          5.5310    -0.0440     0.0630 ca         1 FLY      -0.193000
     17 C22          4.4170    -0.7890     0.3830 ca         1 FLY       0.157900
     18 F24          6.4470     1.7410    -1.1410 f          1 FLY      -0.138900
     19 F23          4.5330    -1.8040     1.2450 f          1 FLY      -0.121900
     20 O16          2.1500    -1.3520     0.1880 os         1 FLY      -0.208200
     21 O15          1.4540     0.6700     1.8830 o          1 FLY      -0.590500
     22 N8          -0.7070     0.6690     1.1930 n          1 FLY      -0.429300
     23 C25         -0.9790     1.7370     2.1470 c3         1 FLY       0.077300
     24 N10         -2.9270     0.6320     0.5350 nb         1 FLY      -0.845000
     25 N12         -5.1090     0.6140    -0.1080 nu         1 FLY      -0.852900
     26 H2          -2.3160    -2.1300    -1.9840 h4         1 FLY       0.026100
     27 H5           0.1550    -2.1590    -1.3130 ha         1 FLY       0.154000
     28 H11         -6.0170    -0.1190    -1.8090 h1         1 FLY       0.078700
     29 H13         -7.7150    -1.5070    -0.6570 hc         1 FLY       0.045867
     30 H13A        -6.0910    -1.9390    -0.1210 hc         1 FLY       0.045867
     31 H13B        -7.1300    -0.9490     0.9130 hc         1 FLY       0.045867
     32 H14         -7.6370     1.5150     0.2030 hc         1 FLY       0.045867
     33 H14A        -6.9660     2.1140    -1.3200 hc         1 FLY       0.045867
     34 H14B        -8.2340     0.8880    -1.3310 hc         1 FLY       0.045867
     35 H18          2.0900     0.7570    -1.5070 ha         1 FLY       0.145000
     36 H19          4.0530     2.1280    -2.0870 ha         1 FLY       0.153000
     37 H21          6.4930    -0.2700     0.5050 ha         1 FLY       0.169000
     38 H25         -0.7540     1.4070     3.1590 h1         1 FLY       0.061033
     39 H25A        -0.3700     2.6090     1.9160 h1         1 FLY       0.061033
     40 H25B        -2.0260     2.0060     2.0840 h1         1 FLY       0.061033
     41 HN12        -5.2280     1.3030     0.6190 hn         1 FLY       0.450800
@<TRIPOS>BOND
     1     1     3 ar  
     2     1     4 ar  
     3     1    26 1   
     4     2     4 ar  
     5     2    22 1   
     6     2    24 ar  
     7     3     8 ar  
     8     4     5 1   
     9     5     6 2   
    10     5    27 1   
    11     6     7 1   
    12     6    20 1   
    13     7    21 2   
    14     7    22 1   
    15     8    24 ar  
    16     8    25 1   
    17     9    10 1   
    18     9    11 1   
    19     9    25 1   
    20     9    28 1   
    21    10    29 1   
    22    10    30 1   
    23    10    31 1   
    24    11    32 1   
    25    11    33 1   
    26    11    34 1   
    27    12    13 ar  
    28    12    17 ar  
    29    12    20 1   
    30    13    14 ar  
    31    13    35 1   
    32    14    15 ar  
    33    14    36 1   
    34    15    16 ar  
    35    15    18 1   
    36    16    17 ar  
    37    16    37 1   
    38    17    19 1   
    39    22    23 1   
    40    23    38 1   
    41    23    39 1   
    42    23    40 1   
    43    25    41 1   
@<TRIPOS>SUBSTRUCTURE
     1 FLY         1 TEMP              0 ****  ****    0 ROOT
