@<TRIPOS>MOLECULE
FLZ
   46    49     1     0     0
SMALL
bcc


@<TRIPOS>ATOM
      1 O11          3.8110     0.2830    -1.2850 os         1 FLZ      -0.229200
      2 C10          1.5120     0.8190    -1.2540 cc         1 FLZ      -0.014200
      3 C6          -0.0540    -0.7480    -0.2040 ca         1 FLZ       0.643200
      4 C5           0.1860     0.4420    -0.9160 ca         1 FLZ      -0.427400
      5 C4          -0.9520     1.1820    -1.2340 ca         1 FLZ       0.533200
      6 C2          -2.2840    -0.3360    -0.2270 ca         1 FLZ       0.956900
      7 C9           2.5310     0.0130    -0.9110 cd         1 FLZ      -0.034100
      8 C12          4.7340     0.5750    -0.3190 ca         1 FLZ       0.136100
      9 C22         -5.9270    -0.9400    -0.1350 c6         1 FLZ      -0.132400
     10 C15          6.0690     0.4360    -0.6800 ca         1 FLZ      -0.166000
     11 C17          6.7320     1.2020     1.5080 ca         1 FLZ      -0.155000
     12 C16          7.0610     0.7530     0.2340 ca         1 FLZ      -0.099000
     13 C18          5.3950     1.3380     1.8540 ca         1 FLZ      -0.099000
     14 C8           2.3160    -1.2410    -0.1940 c          1 FLZ       0.691700
     15 C19          4.3890     1.0320     0.9460 ca         1 FLZ      -0.166000
     16 N1          -2.1700     0.8220    -0.9050 nb         1 FLZ      -0.787000
     17 N7           1.0070    -1.5410     0.1500 n          1 FLZ      -0.430300
     18 N3          -1.2710    -1.1280     0.1320 nb         1 FLZ      -0.842000
     19 N20         -3.5140    -0.7460     0.1070 nu         1 FLZ      -0.851900
     20 C21         -4.7310     0.0050    -0.1190 c6         1 FLZ       0.246500
     21 C26         -4.9560     1.0950     0.9290 c6         1 FLZ      -0.132400
     22 C25         -6.3010     1.7660     0.6990 c6         1 FLZ       0.133900
     23 O24         -7.3620     0.8360     0.7050 os         1 FLZ      -0.400600
     24 C23         -7.2120    -0.1430    -0.2990 c6         1 FLZ       0.133900
     25 H10          1.6900     1.7400    -1.7980 ha         1 FLZ       0.154000
     26 H4          -0.8450     2.1140    -1.7820 h4         1 FLZ       0.026100
     27 H14          1.0110    -3.6420     0.2440 h1         1 FLZ       0.060700
     28 H14A         1.4570    -2.8190     1.7470 h1         1 FLZ       0.060700
     29 H14B        -0.2300    -2.8330     1.2120 h1         1 FLZ       0.060700
     30 H22         -5.8380    -1.6550    -0.9570 hc         1 FLZ       0.058950
     31 H22A        -5.9630    -1.5150     0.7960 hc         1 FLZ       0.058950
     32 H15          6.3250     0.0820    -1.6710 ha         1 FLZ       0.141000
     33 H17          7.5090     1.4440     2.2200 ha         1 FLZ       0.132000
     34 H16          8.0990     0.6430    -0.0520 ha         1 FLZ       0.130000
     35 H18          5.1220     1.6920     2.8390 ha         1 FLZ       0.130000
     36 H19          3.3530     1.1610     1.2330 ha         1 FLZ       0.141000
     37 HN20        -3.5660    -1.5730     0.6810 hn         1 FLZ       0.450800
     38 H21         -4.6560     0.4810    -1.1000 h1         1 FLZ       0.080700
     39 H26         -4.9240     0.6530     1.9290 hc         1 FLZ       0.058950
     40 H26A        -4.1620     1.8430     0.8740 hc         1 FLZ       0.058950
     41 H25         -6.5080     2.4920     1.4870 h1         1 FLZ       0.048950
     42 H25A        -6.2790     2.3160    -0.2540 h1         1 FLZ       0.048950
     43 H23         -7.2230     0.3250    -1.2950 h1         1 FLZ       0.048950
     44 H23A        -8.0800    -0.8010    -0.2380 h1         1 FLZ       0.048950
     45 C14          0.8000    -2.7850     0.8820 c3         1 FLZ       0.078300
     46 O13          3.2280    -1.9950     0.0970 o          1 FLZ      -0.586500
@<TRIPOS>BOND
     1     1     7 1   
     2     1     8 1   
     3     2     4 1   
     4     2     7 2   
     5     2    25 1   
     6     3     4 ar  
     7     3    17 1   
     8     3    18 ar  
     9     4     5 ar  
    10     5    16 ar  
    11     5    26 1   
    12     6    16 ar  
    13     6    18 ar  
    14     6    19 1   
    15     7    14 1   
    16     8    10 ar  
    17     8    15 ar  
    18     9    20 1   
    19     9    24 1   
    20     9    30 1   
    21     9    31 1   
    22    10    12 ar  
    23    10    32 1   
    24    11    12 ar  
    25    11    13 ar  
    26    11    33 1   
    27    12    34 1   
    28    13    15 ar  
    29    13    35 1   
    30    14    17 1   
    31    14    46 2   
    32    15    36 1   
    33    17    45 1   
    34    19    20 1   
    35    19    37 1   
    36    20    21 1   
    37    20    38 1   
    38    21    22 1   
    39    21    39 1   
    40    21    40 1   
    41    22    23 1   
    42    22    41 1   
    43    22    42 1   
    44    23    24 1   
    45    24    43 1   
    46    24    44 1   
    47    27    45 1   
    48    28    45 1   
    49    29    45 1   
@<TRIPOS>SUBSTRUCTURE
     1 FLZ         1 TEMP              0 ****  ****    0 ROOT
