@<TRIPOS>MOLECULE
FLZ
   46    49     1     0     0
SMALL
No Charge or Current Charge


@<TRIPOS>ATOM
      1 O11          3.8160     0.5840    -1.2280 os         1 FLZ      -0.229200
      2 C10          1.5180     0.9230    -1.3370 cc         1 FLZ      -0.064200
      3 C6          -0.0550    -0.6690    -0.2320 ca         1 FLZ       0.314900
      4 C5           0.1720     0.4910    -0.9870 ca         1 FLZ      -0.296800
      5 C4          -0.9550     1.2270    -1.3940 ca         1 FLZ       0.204900
      6 C2          -2.3090    -0.2880    -0.3510 ca         1 FLZ       0.430900
      7 C9           2.5590     0.1250    -0.9140 cd         1 FLZ      -0.034100
      8 C12          4.8230     0.7050    -0.2960 ca         1 FLZ       0.136100
      9 C22         -6.0130    -1.0230    -0.1370 c6         1 FLZ      -0.132400
     10 C15          6.1520     0.4900    -0.7000 ca         1 FLZ      -0.148000
     11 C17          6.9210     0.9820     1.5570 ca         1 FLZ      -0.137000
     12 C16          7.2010     0.6240     0.2260 ca         1 FLZ      -0.081000
     13 C18          5.5940     1.2110     1.9610 ca         1 FLZ      -0.081000
     14 C8           2.3830    -1.1330    -0.1080 c          1 FLZ       0.549200
     15 C19          4.5450     1.0770     1.0350 ca         1 FLZ      -0.148000
     16 N1          -2.2030     0.8380    -1.0770 nb         1 FLZ      -0.260000
     17 N7           1.0470    -1.4690     0.2120 n          1 FLZ      -0.363300
     18 N3          -1.3060    -1.0620     0.0840 nb         1 FLZ      -0.316000
     19 N20         -3.5740    -0.7350    -0.0040 nu         1 FLZ      -0.907100
     20 C21         -4.8400    -0.0200    -0.2230 c6         1 FLZ       0.246500
     21 C26         -5.0120     1.0970     0.8340 c6         1 FLZ      -0.132400
     22 C25         -6.4070     1.7490     0.6980 c6         1 FLZ       0.157100
     23 O24         -7.4310     0.7360     0.7970 os         1 FLZ      -0.447000
     24 C23         -7.3610    -0.2740    -0.2330 c6         1 FLZ       0.157100
     25 H10          1.7150     1.8320    -1.9030 ha         1 FLZ       0.204000
     26 H4          -0.8600     2.1390    -1.9820 h4         1 FLZ       0.026100
     27 H14          0.2580    -3.4350     0.3910 h1         1 FLZ       0.060700
     28 H14A         1.6950    -3.1470     1.4030 h1         1 FLZ       0.060700
     29 H14B         0.1360    -2.4430     1.8720 h1         1 FLZ       0.060700
     30 H22         -5.9400    -1.7620    -0.9460 hc         1 FLZ       0.058950
     31 H22A        -5.9740    -1.5790     0.8100 hc         1 FLZ       0.058950
     32 H15          6.3660     0.2160    -1.7290 ha         1 FLZ       0.123000
     33 H17          7.7330     1.0870     2.2740 ha         1 FLZ       0.114000
     34 H16          8.2290     0.4520    -0.0860 ha         1 FLZ       0.112000
     35 H18          5.3800     1.4950     2.9900 ha         1 FLZ       0.112000
     36 H19          3.5220     1.2670     1.3510 ha         1 FLZ       0.123000
     37 HN20        -3.5860    -1.5890     0.5520 hn         1 FLZ       0.506000
     38 H21         -4.8590     0.4320    -1.2290 h1         1 FLZ       0.080700
     39 H26         -4.9000     0.6850     1.8460 hc         1 FLZ       0.058950
     40 H26A        -4.2340     1.8620     0.7150 hc         1 FLZ       0.058950
     41 H25         -6.5570     2.4890     1.4960 h1         1 FLZ       0.048950
     42 H25A        -6.4970     2.2650    -0.2690 h1         1 FLZ       0.048950
     43 H23         -7.4680     0.2010    -1.2190 h1         1 FLZ       0.048950
     44 H23A        -8.1940    -0.9800    -0.1000 h1         1 FLZ       0.048950
     45 C14          0.7740    -2.6940     1.0150 c3         1 FLZ       0.078300
     46 O13          3.3260    -1.8360     0.2410 o          1 FLZ      -0.511000
@<TRIPOS>BOND
     1     1     7 1   
     2     1     8 1   
     3     2     4 1   
     4     2     7 2   
     5     2    25 1   
     6     3     4 ar  
     7     3    17 1   
     8     3    18 ar  
     9     4     5 ar  
    10     5    16 ar  
    11     5    26 1   
    12     6    16 ar  
    13     6    18 ar  
    14     6    19 1   
    15     7    14 1   
    16     8    10 ar  
    17     8    15 ar  
    18     9    20 1   
    19     9    24 1   
    20     9    30 1   
    21     9    31 1   
    22    10    12 ar  
    23    10    32 1   
    24    11    12 ar  
    25    11    13 ar  
    26    11    33 1   
    27    12    34 1   
    28    13    15 ar  
    29    13    35 1   
    30    14    17 1   
    31    14    46 2   
    32    15    36 1   
    33    17    45 1   
    34    19    20 1   
    35    19    37 1   
    36    20    21 1   
    37    20    38 1   
    38    21    22 1   
    39    21    39 1   
    40    21    40 1   
    41    22    23 1   
    42    22    41 1   
    43    22    42 1   
    44    23    24 1   
    45    24    43 1   
    46    24    44 1   
    47    27    45 1   
    48    28    45 1   
    49    29    45 1   
@<TRIPOS>SUBSTRUCTURE
     1 FLZ         1 TEMP              0 ****  ****    0 ROOT
