@<TRIPOS>MOLECULE
FM1
   35    37     1     0     0
SMALL
abcg2


@<TRIPOS>ATOM
      1 N1          -0.9270    -0.3080     3.7980 nb         1 FM1      -0.269000
      2 C2          -1.7610    -0.9020     2.9300 ca         1 FM1       0.142900
      3 N3          -1.5970    -1.0930     1.6460 nb         1 FM1      -0.153000
      4 C4          -0.4220    -0.6130     1.1850 ca         1 FM1      -0.008300
      5 C5           0.5200     0.0210     1.9860 ca         1 FM1      -0.208200
      6 C6           0.2330     0.1680     3.3680 ca         1 FM1       0.407900
      7 N6           1.0680     0.7550     4.2270 nu         1 FM1      -0.935100
      8 N7           1.5470     0.3590     1.1750 na         1 FM1      -0.041400
      9 N8           1.3250    -0.0170    -0.0800 nc         1 FM1      -0.483100
     10 C9           0.1500    -0.6040    -0.1140 cd         1 FM1       0.205300
     11 C1          -0.4630    -1.1610    -1.3630 c5         1 FM1       0.164000
     12 C7          -1.5780    -0.2630    -1.8910 c5         1 FM1       0.118300
     13 O2          -2.4380    -1.0330    -2.6890 oh         1 FM1      -0.702000
     14 C3          -0.7670     0.7150    -2.7450 c5         1 FM1       0.090300
     15 O3          -1.5060     1.3270    -3.7680 oh         1 FM1      -0.709000
     16 C8           0.3110    -0.1940    -3.3380 c5         1 FM1       0.168300
     17 O4           0.4790    -1.2570    -2.4110 os         1 FM1      -0.416000
     18 C10          1.6100     0.5380    -3.5790 c3         1 FM1       0.156600
     19 O5           2.5170    -0.3280    -4.2200 oh         1 FM1      -0.704000
     20 C66          0.7770     0.8970     5.6330 c3         1 FM1       0.227100
     21 H2          -2.6870    -1.2660     3.3630 h5         1 FM1       0.049100
     22 HN61         1.9490     1.1050     3.8920 hn         1 FM1       0.492000
     23 H7           2.4100     0.8240     1.4030 hn         1 FM1       0.377000
     24 H1          -0.8560    -2.1590    -1.1380 h1         1 FM1       0.114700
     25 H8          -2.1200     0.2400    -1.0800 h1         1 FM1       0.065700
     26 HO2         -2.8270    -0.4470    -3.3500 ho         1 FM1       0.518000
     27 H3          -0.3040     1.4640    -2.0890 h1         1 FM1       0.050700
     28 HO3         -1.9660     2.0880    -3.4020 ho         1 FM1       0.510000
     29 H4          -0.0490    -0.6040    -4.2920 h1         1 FM1       0.086700
     30 H5'1         1.3870     1.4190    -4.1960 h1         1 FM1       0.026200
     31 H5'2         1.9990     0.9000    -2.6200 h1         1 FM1       0.026200
     32 HO5          3.3460     0.1440    -4.3410 ho         1 FM1       0.499000
     33 H661         1.6450     1.3370     6.1150 h1         1 FM1       0.045700
     34 H662        -0.0820     1.5460     5.8050 h1         1 FM1       0.045700
     35 H663         0.5730    -0.0670     6.0990 h1         1 FM1       0.045700
@<TRIPOS>BOND
     1     1     2 ar  
     2     1     6 ar  
     3     2     3 ar  
     4     2    21 1   
     5     3     4 ar  
     6     4     5 ar  
     7     4    10 1   
     8     5     6 ar  
     9     5     8 1   
    10     6     7 1   
    11     7    20 1   
    12     7    22 1   
    13     8     9 1   
    14     8    23 1   
    15     9    10 2   
    16    10    11 1   
    17    11    12 1   
    18    11    17 1   
    19    11    24 1   
    20    12    13 1   
    21    12    14 1   
    22    12    25 1   
    23    13    26 1   
    24    14    15 1   
    25    14    16 1   
    26    14    27 1   
    27    15    28 1   
    28    16    17 1   
    29    16    18 1   
    30    16    29 1   
    31    18    19 1   
    32    18    30 1   
    33    18    31 1   
    34    19    32 1   
    35    20    33 1   
    36    20    34 1   
    37    20    35 1   
@<TRIPOS>SUBSTRUCTURE
     1 FM1         1 TEMP              0 ****  ****    0 ROOT
