@<TRIPOS>MOLECULE
FM1
   35    37     1     0     0
SMALL
No Charge or Current Charge


@<TRIPOS>ATOM
      1 N1          -0.6160    -1.0900     4.0850 nb         1 FM1      -0.269000
      2 C2          -1.2040    -1.8420     3.1140 ca         1 FM1       0.142900
      3 N3          -1.1240    -1.6490     1.7730 nb         1 FM1      -0.153000
      4 C4          -0.3720    -0.5910     1.4200 ca         1 FM1      -0.008300
      5 C5           0.2550     0.2220     2.3030 ca         1 FM1      -0.208200
      6 C6           0.1290    -0.0360     3.6770 ca         1 FM1       0.407900
      7 N6           0.7400     0.7510     4.6490 nu         1 FM1      -0.935100
      8 N7           0.9280     1.1990     1.5880 na         1 FM1      -0.041400
      9 N8           0.7240     1.0080     0.2070 nc         1 FM1      -0.483100
     10 C9          -0.0650    -0.0830     0.1030 cd         1 FM1       0.205300
     11 C1          -0.5390    -0.6230    -1.2420 c5         1 FM1       0.164000
     12 C7          -1.4580     0.4360    -1.9520 c5         1 FM1       0.118300
     13 O2          -2.5840    -0.1540    -2.6140 oh         1 FM1      -0.702000
     14 C3          -0.4950     1.0080    -3.0330 c5         1 FM1       0.090300
     15 O3          -1.2380     1.6000    -4.1190 oh         1 FM1      -0.709000
     16 C8           0.2730    -0.2920    -3.4210 c5         1 FM1       0.168300
     17 O4           0.5890    -0.8640    -2.1320 os         1 FM1      -0.416000
     18 C10          1.5670    -0.0680    -4.2540 c3         1 FM1       0.156600
     19 O5           2.1280    -1.3140    -4.7090 oh         1 FM1      -0.704000
     20 C66          0.6690     0.5650     6.1130 c3         1 FM1       0.227100
     21 H2          -1.8030    -2.6880     3.4480 h5         1 FM1       0.049100
     22 HN61         1.2950     1.5360     4.3090 hn         1 FM1       0.492000
     23 H7           1.4970     1.9630     1.9530 hn         1 FM1       0.377000
     24 H1          -1.0780    -1.5650    -1.0760 h1         1 FM1       0.114700
     25 H8          -1.7910     1.2210    -1.2580 h1         1 FM1       0.065700
     26 HO2         -2.6190     0.3540    -3.4650 ho         1 FM1       0.518000
     27 H3           0.1900     1.7430    -2.5850 h1         1 FM1       0.050700
     28 HO3         -0.6550     2.2720    -4.5490 ho         1 FM1       0.510000
     29 H4          -0.3820    -0.9850    -3.9680 h1         1 FM1       0.086700
     30 H5'1         1.3190     0.5640    -5.1180 h1         1 FM1       0.026200
     31 H5'2         2.2930     0.4820    -3.6410 h1         1 FM1       0.026200
     32 HO5          2.9710    -1.0990    -5.1740 ho         1 FM1       0.499000
     33 H661         1.2520     1.3400     6.6290 h1         1 FM1       0.045700
     34 H662        -0.3710     0.6280     6.4600 h1         1 FM1       0.045700
     35 H663         1.0720    -0.4170     6.3980 h1         1 FM1       0.045700
@<TRIPOS>BOND
     1     1     2 ar  
     2     1     6 ar  
     3     2     3 ar  
     4     2    21 1   
     5     3     4 ar  
     6     4     5 ar  
     7     4    10 1   
     8     5     6 ar  
     9     5     8 1   
    10     6     7 1   
    11     7    20 1   
    12     7    22 1   
    13     8     9 1   
    14     8    23 1   
    15     9    10 2   
    16    10    11 1   
    17    11    12 1   
    18    11    17 1   
    19    11    24 1   
    20    12    13 1   
    21    12    14 1   
    22    12    25 1   
    23    13    26 1   
    24    14    15 1   
    25    14    16 1   
    26    14    27 1   
    27    15    28 1   
    28    16    17 1   
    29    16    18 1   
    30    16    29 1   
    31    18    19 1   
    32    18    30 1   
    33    18    31 1   
    34    19    32 1   
    35    20    33 1   
    36    20    34 1   
    37    20    35 1   
@<TRIPOS>SUBSTRUCTURE
     1 FM1         1 TEMP              0 ****  ****    0 ROOT
