@<TRIPOS>MOLECULE
FM2
   36    38     1     0     0
SMALL
abcg2


@<TRIPOS>ATOM
      1 N1           3.8870     0.4230     0.2830 na         1 FM2      -0.255200
      2 C2           3.1190     1.4270     0.8330 ca         1 FM2       0.532400
      3 N3           1.8450     1.4010     0.9640 nb         1 FM2      -0.570000
      4 C4           1.2460     0.2740     0.5110 ca         1 FM2       0.273700
      5 C5           1.9370    -0.7860    -0.0550 ca         1 FM2      -0.210200
      6 C6           3.3410    -0.7230    -0.1840 ca         1 FM2       0.239500
      7 N6           4.0820    -1.6720    -0.7060 nv         1 FM2      -0.478800
      8 N7           1.0180    -1.7140    -0.3790 na         1 FM2      -0.000400
      9 N8          -0.2030    -1.3180    -0.0570 nc         1 FM2      -0.428100
     10 C9          -0.1090    -0.1220     0.4830 cd         1 FM2       0.251300
     11 C1          -1.2930     0.6650     0.9550 c5         1 FM2       0.149000
     12 C7          -1.7980     1.6250    -0.1220 c5         1 FM2       0.162300
     13 O2          -2.4660     2.6790     0.5200 oh         1 FM2      -0.700000
     14 C3          -2.7660     0.7180    -0.8750 c5         1 FM2       0.098300
     15 O3          -3.6710     1.4840    -1.6180 oh         1 FM2      -0.707000
     16 C8          -3.3910    -0.0890     0.2710 c5         1 FM2       0.126300
     17 O4          -2.3780    -0.1830     1.2650 os         1 FM2      -0.405000
     18 C10         -3.8450    -1.4610    -0.1630 c3         1 FM2       0.162600
     19 O5          -4.4770    -2.1050     0.9170 oh         1 FM2      -0.697000
     20 C11          5.3340     0.6090     0.2010 c3         1 FM2       0.014900
     21 H2           3.6820     2.2870     1.1690 h5         1 FM2       0.089100
     22 HN61         3.6640    -2.5190    -1.0570 hn         1 FM2       0.377500
     23 HN62         5.0850    -1.6120    -0.7810 hn         1 FM2       0.377500
     24 H7           1.1480    -2.6210    -0.8030 hn         1 FM2       0.403000
     25 H1          -0.9950     1.2260     1.8480 h1         1 FM2       0.122700
     26 H6          -0.9860     1.9900    -0.7640 h1         1 FM2       0.054700
     27 HO2         -3.0150     3.1340    -0.1270 ho         1 FM2       0.540000
     28 H3          -2.1890     0.0440    -1.5250 h1         1 FM2       0.040700
     29 HO3         -4.1790     0.9070    -2.1960 ho         1 FM2       0.527000
     30 H4          -4.2490     0.4670     0.6730 h1         1 FM2       0.098700
     31 H5'1        -4.5290    -1.3340    -1.0140 h1         1 FM2       0.020700
     32 H5'2        -2.9760    -2.0240    -0.5280 h1         1 FM2       0.020700
     33 HO5         -4.7670    -2.9720     0.6210 ho         1 FM2       0.510000
     34 H111         5.8460    -0.1630     0.7730 h1         1 FM2       0.087367
     35 H112         5.6580     0.5840    -0.8380 h1         1 FM2       0.087367
     36 H113         5.5890     1.5750     0.6200 h1         1 FM2       0.087367
@<TRIPOS>BOND
     1     1     2 1   
     2     1     6 2   
     3     1    20 1   
     4     2     3 ar  
     5     2    21 1   
     6     3     4 ar  
     7     4     5 ar  
     8     4    10 1   
     9     5     6 ar  
    10     5     8 1   
    11     6     7 1   
    12     7    22 1   
    13     7    23 1   
    14     8     9 1   
    15     8    24 1   
    16     9    10 2   
    17    10    11 1   
    18    11    12 1   
    19    11    17 1   
    20    11    25 1   
    21    12    13 1   
    22    12    14 1   
    23    12    26 1   
    24    13    27 1   
    25    14    15 1   
    26    14    16 1   
    27    14    28 1   
    28    15    29 1   
    29    16    17 1   
    30    16    18 1   
    31    16    30 1   
    32    18    19 1   
    33    18    31 1   
    34    18    32 1   
    35    19    33 1   
    36    20    34 1   
    37    20    35 1   
    38    20    36 1   
@<TRIPOS>SUBSTRUCTURE
     1 FM2         1 TEMP              0 ****  ****    0 ROOT
