@<TRIPOS>MOLECULE
FM2
   36    38     1     0     0
SMALL
No Charge or Current Charge


@<TRIPOS>ATOM
      1 N1           4.1520     0.3770     0.6550 na         1 FM2      -0.255200
      2 C2           3.2400     1.2070     1.3320 ca         1 FM2       0.532400
      3 N3           1.8900     1.1740     1.1990 nb         1 FM2      -0.570000
      4 C4           1.4440     0.2470     0.3320 ca         1 FM2       0.273700
      5 C5           2.2310    -0.6050    -0.3770 ca         1 FM2      -0.210200
      6 C6           3.6270    -0.5690    -0.2400 ca         1 FM2       0.239500
      7 N6           4.4560    -1.4120    -0.9400 nv         1 FM2      -0.478800
      8 N7           1.4050    -1.4010    -1.1620 na         1 FM2      -0.000400
      9 N8           0.0560    -1.0530    -0.9570 nc         1 FM2      -0.428100
     10 C9           0.0800    -0.0550    -0.0490 cd         1 FM2       0.251300
     11 C1          -1.1920     0.6190     0.4420 c5         1 FM2       0.149000
     12 C7          -1.8920     1.3710    -0.7460 c5         1 FM2       0.162300
     13 O2          -2.4180     2.6460    -0.3670 oh         1 FM2      -0.700000
     14 C3          -3.0900     0.4240    -1.0560 c5         1 FM2       0.098300
     15 O3          -4.1530     1.1450    -1.7110 oh         1 FM2      -0.707000
     16 C8          -3.4430    -0.0450     0.3880 c5         1 FM2       0.126300
     17 O4          -2.1450    -0.3640     0.9360 os         1 FM2      -0.405000
     18 C10         -4.3900    -1.2740     0.4660 c3         1 FM2       0.162600
     19 O5          -4.7880    -1.5420     1.8230 oh         1 FM2      -0.697000
     20 C11          5.6090     0.5150     0.8960 c3         1 FM2       0.014900
     21 H2           3.6480     1.9430     2.0240 h5         1 FM2       0.089100
     22 HN61         4.0850    -2.0960    -1.5850 hn         1 FM2       0.377500
     23 HN62         5.4600    -1.3670    -0.8240 hn         1 FM2       0.377500
     24 H7           1.6750    -2.1420    -1.8100 hn         1 FM2       0.403000
     25 H1          -0.9350     1.3160     1.2510 h1         1 FM2       0.122700
     26 H6          -1.2300     1.4760    -1.6180 h1         1 FM2       0.054700
     27 HO2         -3.3000     2.6490    -0.8240 ho         1 FM2       0.540000
     28 H3          -2.7600    -0.4260    -1.6710 h1         1 FM2       0.040700
     29 HO3         -4.6870     0.4900    -2.2250 ho         1 FM2       0.527000
     30 H4          -3.8850     0.7770     0.9680 h1         1 FM2       0.098700
     31 H5'1        -5.2780    -1.0720    -0.1470 h1         1 FM2       0.020700
     32 H5'2        -3.8800    -2.1460     0.0350 h1         1 FM2       0.020700
     33 HO5         -5.3360    -2.3620     1.8060 ho         1 FM2       0.510000
     34 H111         6.0160    -0.4270     1.2840 h1         1 FM2       0.087367
     35 H112         6.1200     0.7750    -0.0400 h1         1 FM2       0.087367
     36 H113         5.8070     1.3070     1.6300 h1         1 FM2       0.087367
@<TRIPOS>BOND
     1     1     2 1   
     2     1     6 2   
     3     1    20 1   
     4     2     3 ar  
     5     2    21 1   
     6     3     4 ar  
     7     4     5 ar  
     8     4    10 1   
     9     5     6 ar  
    10     5     8 1   
    11     6     7 1   
    12     7    22 1   
    13     7    23 1   
    14     8     9 1   
    15     8    24 1   
    16     9    10 2   
    17    10    11 1   
    18    11    12 1   
    19    11    17 1   
    20    11    25 1   
    21    12    13 1   
    22    12    14 1   
    23    12    26 1   
    24    13    27 1   
    25    14    15 1   
    26    14    16 1   
    27    14    28 1   
    28    15    29 1   
    29    16    17 1   
    30    16    18 1   
    31    16    30 1   
    32    18    19 1   
    33    18    31 1   
    34    18    32 1   
    35    19    33 1   
    36    20    34 1   
    37    20    35 1   
    38    20    36 1   
@<TRIPOS>SUBSTRUCTURE
     1 FM2         1 TEMP              0 ****  ****    0 ROOT
