@<TRIPOS>MOLECULE
FM5
   32    32     1     0     0
SMALL
No Charge or Current Charge


@<TRIPOS>ATOM
      1 Cl2         -5.2310     1.0120     0.6540 cl         1 FM5      -0.272000
      2 C9          -3.5530     0.4670     0.6120 ca         1 FM5       0.062000
      3 C10         -2.9270     0.0990     1.8140 ca         1 FM5      -0.108000
      4 C11         -1.5910    -0.3380     1.8090 ca         1 FM5      -0.094000
      5 C8          -2.8340     0.3970    -0.6010 ca         1 FM5       0.130000
      6 Cl1         -3.5840     0.8530    -2.1330 cl         1 FM5      -0.262000
      7 C7          -1.4990    -0.0390    -0.6010 ca         1 FM5      -0.097000
      8 C6          -0.8660    -0.4120     0.6020 ca         1 FM5       0.073700
      9 C4           0.5890    -0.8730     0.6100 c3         1 FM5      -0.315400
     10 PA1          0.7860    -2.5340    -0.1860 p5         1 FM5       1.262500
     11 OP1          0.8220    -2.3680    -1.6670 o          1 FM5      -0.905167
     12 OP2          2.0580    -3.1450     0.2950 o          1 FM5      -0.905167
     13 OP3         -0.3650    -3.3960     0.2080 o          1 FM5      -0.905167
     14 C3           1.5350     0.2340     0.0640 c3         1 FM5      -0.040400
     15 C2           3.0430    -0.0450     0.2620 c3         1 FM5       0.077000
     16 N1           3.8970     1.1040    -0.1190 n          1 FM5      -0.262300
     17 O2           4.2010     1.2160    -1.5260 oh         1 FM5      -0.436100
     18 C1           4.4490     2.0150     0.8250 c          1 FM5       0.594100
     19 O1           4.2180     1.9100     2.0240 o          1 FM5      -0.634100
     20 C5           5.3450     3.1410     0.2980 c3         1 FM5      -0.168100
     21 H10         -3.4760     0.1520     2.7510 ha         1 FM5       0.094000
     22 H11         -1.1180    -0.6180     2.7470 ha         1 FM5       0.124000
     23 H7          -0.9570    -0.0910    -1.5400 ha         1 FM5       0.135000
     24 H4           0.8890    -1.0680     1.6460 hc         1 FM5       0.044700
     25 H31C         1.3390     0.4000    -1.0020 hc         1 FM5       0.017700
     26 H32C         1.2920     1.1740     0.5750 hc         1 FM5       0.017700
     27 H21C         3.2280    -0.3050     1.3120 h1         1 FM5       0.099700
     28 H22C         3.3380    -0.9100    -0.3440 h1         1 FM5       0.099700
     29 H51C         4.7960     3.7140    -0.4570 hc         1 FM5       0.045700
     30 H52C         5.7230     3.7900     1.0970 hc         1 FM5       0.045700
     31 H53C         6.1640     2.7060    -0.2860 hc         1 FM5       0.045700
     32 HO2C         3.4870     1.7790    -1.9010 ho         1 FM5       0.438000
@<TRIPOS>BOND
     1     1     2 1   
     2     2     3 ar  
     3     2     5 ar  
     4     3     4 ar  
     5     3    21 1   
     6     4     8 ar  
     7     4    22 1   
     8     5     6 1   
     9     5     7 ar  
    10     7     8 ar  
    11     7    23 1   
    12     8     9 1   
    13     9    10 1   
    14     9    14 1   
    15     9    24 1   
    16    10    11 1   
    17    10    12 1   
    18    10    13 1   
    19    14    15 1   
    20    14    25 1   
    21    14    26 1   
    22    15    16 1   
    23    15    27 1   
    24    15    28 1   
    25    16    17 1   
    26    16    18 1   
    27    17    32 1   
    28    18    19 2   
    29    18    20 1   
    30    20    29 1   
    31    20    30 1   
    32    20    31 1   
@<TRIPOS>SUBSTRUCTURE
     1 FM5         1 TEMP              0 ****  ****    0 ROOT
