@<TRIPOS>MOLECULE
FM5
   32    32     1     0     0
SMALL
bcc


@<TRIPOS>ATOM
      1 CL2         -5.2140     0.7540     0.5580 cl         1 FM5      -0.180400
      2 C9          -3.5400     0.3280     0.5860 ca         1 FM5      -0.029600
      3 C10         -3.0460    -0.4630     1.6150 ca         1 FM5      -0.126000
      4 C11         -1.7060    -0.8040     1.6450 ca         1 FM5      -0.112000
      5 C8          -2.6700     0.7720    -0.3990 ca         1 FM5       0.038400
      6 CL1         -3.2490     1.7610    -1.6950 cl         1 FM5      -0.170400
      7 C7          -1.3280     0.4240    -0.3640 ca         1 FM5      -0.115000
      8 C6          -0.8130    -0.3600     0.6670 ca         1 FM5       0.073700
      9 C4           0.6160    -0.7780     0.6970 c3         1 FM5      -0.157600
     10 PA1          0.7550    -2.4090    -0.2690 p5         1 FM5       1.104700
     11 OP1          0.3820    -2.0170    -1.7010 o          1 FM5      -0.905167
     12 OP2          2.2140    -2.8550    -0.1020 o          1 FM5      -0.905167
     13 OP3         -0.2480    -3.3400     0.4160 o          1 FM5      -0.905167
     14 C3           1.5710     0.2930     0.1640 c3         1 FM5      -0.040400
     15 C2           2.9970     0.0850     0.6610 c3         1 FM5       0.077000
     16 N1           3.9350     1.0230     0.0800 n          1 FM5      -0.329300
     17 O2           4.3850     0.7090    -1.1760 oh         1 FM5      -0.397100
     18 C1           4.3390     2.1800     0.6440 c          1 FM5       0.661100
     19 O1           3.9580     2.5040     1.7620 o          1 FM5      -0.634100
     20 C5           5.2830     3.0320    -0.1680 c3         1 FM5      -0.168100
     21 H10         -3.7160    -0.8140     2.3880 ha         1 FM5       0.112000
     22 H11         -1.3410    -1.4180     2.4570 ha         1 FM5       0.142000
     23 H7          -0.6820     0.7880    -1.1500 ha         1 FM5       0.153000
     24 H4           0.8750    -0.9970     1.7400 hc         1 FM5       0.044700
     25 H31C         1.5570     0.2750    -0.9300 hc         1 FM5       0.017700
     26 H32C         1.2400     1.2930     0.4670 hc         1 FM5       0.017700
     27 H21C         3.0410     0.1990     1.7430 h1         1 FM5       0.099700
     28 H22C         3.3220    -0.9260     0.4190 h1         1 FM5       0.099700
     29 H51C         4.8350     3.3380    -1.1140 hc         1 FM5       0.045700
     30 H52C         5.5300     3.9240     0.4020 hc         1 FM5       0.045700
     31 H53C         6.2050     2.5010    -0.4030 hc         1 FM5       0.045700
     32 HO2C         3.7140     1.0200    -1.8000 ho         1 FM5       0.399000
@<TRIPOS>BOND
     1     1     2 1   
     2     2     3 ar  
     3     2     5 ar  
     4     3     4 ar  
     5     3    21 1   
     6     4     8 ar  
     7     4    22 1   
     8     5     6 1   
     9     5     7 ar  
    10     7     8 ar  
    11     7    23 1   
    12     8     9 1   
    13     9    10 1   
    14     9    14 1   
    15     9    24 1   
    16    10    11 1   
    17    10    12 1   
    18    10    13 1   
    19    14    15 1   
    20    14    25 1   
    21    14    26 1   
    22    15    16 1   
    23    15    27 1   
    24    15    28 1   
    25    16    17 1   
    26    16    18 1   
    27    17    32 1   
    28    18    19 2   
    29    18    20 1   
    30    20    29 1   
    31    20    30 1   
    32    20    31 1   
@<TRIPOS>SUBSTRUCTURE
     1 FM5         1 TEMP              0 ****  ****    0 ROOT
