@<TRIPOS>MOLECULE
FM6
   39    40     1     0     0
SMALL
bcc


@<TRIPOS>ATOM
      1 C7          -3.0330     0.1450    -0.8630 ca         1 FM6      -0.107000
      2 C8          -4.1420    -0.5920    -0.4870 ca         1 FM6       0.038400
      3 CL1         -5.4890    -0.7000    -1.5660 cl         1 FM6      -0.167400
      4 C9          -4.1760    -1.2320     0.7460 ca         1 FM6      -0.029600
      5 CL2         -5.5510    -2.1590     1.2310 cl         1 FM6      -0.180400
      6 C10         -3.0820    -1.1270     1.5900 ca         1 FM6      -0.127000
      7 C11         -1.9740    -0.3880     1.2070 ca         1 FM6      -0.121000
      8 C6          -1.9170     0.2510    -0.0330 ca         1 FM6       0.071700
      9 C4          -0.7530     1.0840    -0.4450 c3         1 FM6      -0.155600
     10 PA1         -1.0700     2.8540     0.1690 p5         1 FM6       1.104700
     11 OP1         -1.0850     2.7160     1.6930 o          1 FM6      -0.905167
     12 OP3          0.1010     3.6880    -0.3710 o          1 FM6      -0.905167
     13 OP2         -2.4180     3.2280    -0.4500 o          1 FM6      -0.905167
     14 C3           0.5810     0.5130     0.0410 c3         1 FM6      -0.039400
     15 C2           1.7730     1.1050    -0.7050 c3         1 FM6       0.076000
     16 N1           3.0390     0.5390    -0.2830 n          1 FM6      -0.317300
     17 O2           3.5220     1.0040     0.9120 oh         1 FM6      -0.391100
     18 C1           3.6370    -0.5120    -0.8790 c          1 FM6       0.659700
     19 O1           3.1430    -1.0580    -1.8560 o          1 FM6      -0.611100
     20 C12          4.9390    -0.9930    -0.3220 ca         1 FM6      -0.120600
     21 C17          5.1120    -2.3690    -0.1960 ca         1 FM6      -0.083000
     22 C16          6.3240    -2.8860     0.2400 ca         1 FM6      -0.153500
     23 C15          7.3830    -2.0330     0.5190 ca         1 FM6      -0.133000
     24 C14          7.2230    -0.6620     0.3680 ca         1 FM6      -0.153500
     25 C13          6.0040    -0.1400    -0.0410 ca         1 FM6      -0.083000
     26 H7          -3.0300     0.6400    -1.8250 ha         1 FM6       0.156000
     27 H10         -3.1020    -1.6190     2.5530 ha         1 FM6       0.111000
     28 H11         -1.1390    -0.3200     1.8890 ha         1 FM6       0.141000
     29 H4          -0.7360     1.1190    -1.5420 hc         1 FM6       0.046700
     30 H31C         0.6890     0.7040     1.1120 hc         1 FM6       0.014200
     31 H32C         0.6000    -0.5750    -0.0910 hc         1 FM6       0.014200
     32 H21C         1.6720     0.9260    -1.7750 h1         1 FM6       0.105700
     33 H22C         1.8050     2.1830    -0.5580 h1         1 FM6       0.105700
     34 H17          4.2960    -3.0400    -0.4280 ha         1 FM6       0.150000
     35 H13          5.8990     0.9300    -0.1570 ha         1 FM6       0.150000
     36 H16          6.4430    -3.9560     0.3520 ha         1 FM6       0.118500
     37 H15          8.3320    -2.4350     0.8500 ha         1 FM6       0.111000
     38 H14          8.0490     0.0070     0.5710 ha         1 FM6       0.118500
     39 H2O          3.1160     0.4650     1.6060 ho         1 FM6       0.395000
@<TRIPOS>BOND
     1     1     2 ar  
     2     1     8 ar  
     3     1    26 1   
     4     2     3 1   
     5     2     4 ar  
     6     4     5 1   
     7     4     6 ar  
     8     6     7 ar  
     9     6    27 1   
    10     7     8 ar  
    11     7    28 1   
    12     8     9 1   
    13     9    10 1   
    14     9    14 1   
    15     9    29 1   
    16    10    11 1   
    17    10    12 1   
    18    10    13 1   
    19    14    15 1   
    20    14    30 1   
    21    14    31 1   
    22    15    16 1   
    23    15    32 1   
    24    15    33 1   
    25    16    17 1   
    26    16    18 1   
    27    17    39 1   
    28    18    19 2   
    29    18    20 1   
    30    20    21 ar  
    31    20    25 ar  
    32    21    22 ar  
    33    21    34 1   
    34    22    23 ar  
    35    22    36 1   
    36    23    24 ar  
    37    23    37 1   
    38    24    25 ar  
    39    24    38 1   
    40    25    35 1   
@<TRIPOS>SUBSTRUCTURE
     1 FM6         1 TEMP              0 ****  ****    0 ROOT
