@<TRIPOS>MOLECULE
FM6
   39    40     1     0     0
SMALL
No Charge or Current Charge


@<TRIPOS>ATOM
      1 C7          -2.8500    -0.2860    -0.9270 ca         1 FM6      -0.089000
      2 C8          -3.9440    -1.0720    -0.5260 ca         1 FM6       0.130000
      3 Cl1         -4.9600    -1.8160    -1.7640 cl         1 FM6      -0.259000
      4 C9          -4.2130    -1.2570     0.8470 ca         1 FM6       0.062000
      5 Cl2         -5.5770    -2.2370     1.3900 cl         1 FM6      -0.272000
      6 C10         -3.3850    -0.6530     1.8060 ca         1 FM6      -0.109000
      7 C11         -2.2920     0.1330     1.4010 ca         1 FM6      -0.103000
      8 C6          -2.0150     0.3240     0.0310 ca         1 FM6       0.071700
      9 C4          -0.8210     1.1630    -0.4180 c3         1 FM6      -0.313400
     10 PA1         -1.0970     2.9690    -0.1080 p5         1 FM6       1.262500
     11 OP1         -0.8100     3.2740     1.3230 o          1 FM6      -0.905167
     12 OP3         -0.1850     3.7470    -0.9930 o          1 FM6      -0.905167
     13 OP2         -2.5140     3.3010    -0.4320 o          1 FM6      -0.905167
     14 C3           0.5150     0.5960     0.1410 c3         1 FM6      -0.039400
     15 C2           1.7910     1.2300    -0.4620 c3         1 FM6       0.076000
     16 N1           3.0370     0.5460    -0.0450 n          1 FM6      -0.250300
     17 O2           3.4460     0.8000     1.3140 oh         1 FM6      -0.430100
     18 C1           3.6830    -0.4400    -0.8540 c          1 FM6       0.592700
     19 O1           3.1840    -0.7900    -1.9190 o          1 FM6      -0.611100
     20 C12          5.0070    -1.0360    -0.4070 ca         1 FM6      -0.120600
     21 C17          5.3100    -2.3710    -0.7590 ca         1 FM6      -0.065000
     22 C16          6.5320    -2.9550    -0.3840 ca         1 FM6      -0.135500
     23 C15          7.4780    -2.2080     0.3340 ca         1 FM6      -0.115000
     24 C14          7.2050    -0.8720     0.6670 ca         1 FM6      -0.135500
     25 C13          5.9820    -0.2860     0.2950 ca         1 FM6      -0.065000
     26 H7          -2.6520    -0.1530    -1.9860 ha         1 FM6       0.138000
     27 H10         -3.5890    -0.7920     2.8650 ha         1 FM6       0.093000
     28 H11         -1.6610     0.5970     2.1540 ha         1 FM6       0.123000
     29 H4          -0.7550     1.1190    -1.5100 hc         1 FM6       0.046700
     30 H31C         0.5400     0.7070     1.2320 hc         1 FM6       0.014200
     31 H32C         0.5400    -0.4820    -0.0640 hc         1 FM6       0.014200
     32 H21C         1.7180     1.2210    -1.5570 h1         1 FM6       0.105700
     33 H22C         1.8560     2.2810    -0.1530 h1         1 FM6       0.105700
     34 H17          4.5880    -2.9640    -1.3180 ha         1 FM6       0.132000
     35 H13          5.8140     0.7620     0.5310 ha         1 FM6       0.132000
     36 H16          6.7460    -3.9870    -0.6530 ha         1 FM6       0.100500
     37 H15          8.4260    -2.6590     0.6220 ha         1 FM6       0.093000
     38 H14          7.9440    -0.2850     1.2060 ha         1 FM6       0.100500
     39 H2O          2.9610     0.1380     1.8560 ho         1 FM6       0.434000
@<TRIPOS>BOND
     1     1     2 ar  
     2     1     8 ar  
     3     1    26 1   
     4     2     3 1   
     5     2     4 ar  
     6     4     5 1   
     7     4     6 ar  
     8     6     7 ar  
     9     6    27 1   
    10     7     8 ar  
    11     7    28 1   
    12     8     9 1   
    13     9    10 1   
    14     9    14 1   
    15     9    29 1   
    16    10    11 1   
    17    10    12 1   
    18    10    13 1   
    19    14    15 1   
    20    14    30 1   
    21    14    31 1   
    22    15    16 1   
    23    15    32 1   
    24    15    33 1   
    25    16    17 1   
    26    16    18 1   
    27    17    39 1   
    28    18    19 2   
    29    18    20 1   
    30    20    21 ar  
    31    20    25 ar  
    32    21    22 ar  
    33    21    34 1   
    34    22    23 ar  
    35    22    36 1   
    36    23    24 ar  
    37    23    37 1   
    38    24    25 ar  
    39    24    38 1   
    40    25    35 1   
@<TRIPOS>SUBSTRUCTURE
     1 FM6         1 TEMP              0 ****  ****    0 ROOT
