@<TRIPOS>MOLECULE
FM7
   54    56     1     0     0
SMALL
abcg2


@<TRIPOS>ATOM
      1 F1          -0.8270    -3.5690     0.9950 f          1 FM7      -0.112667
      2 C3           1.8060     1.9590     0.8800 c3         1 FM7      -0.048400
      3 C30         -1.8960    -3.1620     0.3040 c3         1 FM7       0.353300
      4 F2          -1.6140    -3.3200    -0.9920 f          1 FM7      -0.112667
      5 F3          -2.8840    -4.0330     0.5880 f          1 FM7      -0.112667
      6 C20         -2.2940    -1.7610     0.6490 ca         1 FM7      -0.152300
      7 C21         -2.1580    -1.3230     1.9610 ca         1 FM7      -0.092000
      8 C22         -2.5820    -0.0430     2.2830 ca         1 FM7      -0.086000
      9 C23         -3.1320     0.7890     1.3230 ca         1 FM7      -0.126000
     10 C19         -2.8220    -0.9320    -0.3280 ca         1 FM7      -0.104000
     11 C18         -3.2400     0.3590    -0.0010 ca         1 FM7       0.307000
     12 N2          -3.7740     1.1810    -0.9780 nu         1 FM7      -1.007000
     13 C13         -3.6280     2.5640    -1.0440 ca         1 FM7       0.345000
     14 C14         -4.6960     3.3300    -1.5170 ca         1 FM7      -0.173000
     15 C15         -4.5910     4.7070    -1.6220 ca         1 FM7      -0.090000
     16 C16         -3.4280     5.3520    -1.2240 ca         1 FM7      -0.152000
     17 C17         -2.3660     4.6010    -0.7460 ca         1 FM7      -0.052000
     18 C12         -2.4420     3.2150    -0.6700 ca         1 FM7      -0.146600
     19 C4          -1.2180     2.4050    -0.3830 c          1 FM7       0.598700
     20 O1          -0.7710     1.6380    -1.2210 o          1 FM7      -0.555100
     21 N1          -0.6150     2.5650     0.8130 n          1 FM7      -0.262300
     22 O2          -1.2430     3.3280     1.7630 oh         1 FM7      -0.463100
     23 C2           0.3800     1.6160     1.2910 c3         1 FM7       0.089000
     24 C1           2.8080     0.8950     1.3140 c3         1 FM7      -0.304400
     25 PA1          4.5690     1.4140     0.8500 p5         1 FM7       1.261500
     26 OP3          5.4620     0.2870     1.3750 o          1 FM7      -0.906500
     27 OP2          4.5380     1.5370    -0.6770 o          1 FM7      -0.906500
     28 OP1          4.7640     2.7490     1.5810 o          1 FM7      -0.906500
     29 C6           2.5400    -0.4660     0.7660 ca         1 FM7       0.056700
     30 C11          2.9000    -1.6040     1.4910 ca         1 FM7      -0.101000
     31 C10          2.6890    -2.8790     0.9980 ca         1 FM7      -0.109000
     32 C9           2.1230    -3.0540    -0.2570 ca         1 FM7       0.066000
     33 CL2          1.8470    -4.6480    -0.8610 cl         1 FM7      -0.269000
     34 C8           1.7690    -1.9360    -0.9970 ca         1 FM7       0.127000
     35 CL1          1.0630    -2.1120    -2.5650 cl         1 FM7      -0.252000
     36 C7           1.9840    -0.6610    -0.4970 ca         1 FM7      -0.096000
     37 H31C         1.8570     2.0990    -0.2010 hc         1 FM7       0.066200
     38 H32C         2.1030     2.9100     1.3260 hc         1 FM7       0.066200
     39 H21C         0.1050     0.6240     0.9290 h1         1 FM7       0.046200
     40 H22C         0.2930     1.5920     2.3770 h1         1 FM7       0.046200
     41 H1           2.7860     0.8230     2.4090 hc         1 FM7       0.038700
     42 H21         -1.7310    -1.9570     2.7270 ha         1 FM7       0.129000
     43 H19         -2.8960    -1.2600    -1.3560 ha         1 FM7       0.129000
     44 H22         -2.4950     0.3090     3.3030 ha         1 FM7       0.115000
     45 H23         -3.4780     1.7740     1.6050 ha         1 FM7       0.126000
     46 H2          -4.1930     0.7320    -1.7760 hn         1 FM7       0.491000
     47 H14         -5.6150     2.8330    -1.8010 ha         1 FM7       0.103000
     48 H15         -5.4300     5.2770    -1.9990 ha         1 FM7       0.096000
     49 H16         -3.3440     6.4280    -1.2920 ha         1 FM7       0.106000
     50 H17         -1.4460     5.1020    -0.4670 ha         1 FM7       0.125000
     51 HA          -0.7440     4.1530     1.8180 ho         1 FM7       0.445000
     52 H11          3.3420    -1.4900     2.4730 ha         1 FM7       0.124000
     53 H7           1.6650     0.1830    -1.0920 ha         1 FM7       0.147000
     54 H10          2.9660    -3.7450     1.5840 ha         1 FM7       0.093000
@<TRIPOS>BOND
     1     1     3 1   
     2     2    23 1   
     3     2    24 1   
     4     2    37 1   
     5     2    38 1   
     6     3     4 1   
     7     3     5 1   
     8     3     6 1   
     9     6     7 ar  
    10     6    10 ar  
    11     7     8 ar  
    12     7    42 1   
    13     8     9 ar  
    14     8    44 1   
    15     9    11 ar  
    16     9    45 1   
    17    10    11 ar  
    18    10    43 1   
    19    11    12 1   
    20    12    13 1   
    21    12    46 1   
    22    13    14 ar  
    23    13    18 ar  
    24    14    15 ar  
    25    14    47 1   
    26    15    16 ar  
    27    15    48 1   
    28    16    17 ar  
    29    16    49 1   
    30    17    18 ar  
    31    17    50 1   
    32    18    19 1   
    33    19    20 2   
    34    19    21 1   
    35    21    22 1   
    36    21    23 1   
    37    22    51 1   
    38    23    39 1   
    39    23    40 1   
    40    24    25 1   
    41    24    29 1   
    42    24    41 1   
    43    25    26 1   
    44    25    27 1   
    45    25    28 1   
    46    29    30 ar  
    47    29    36 ar  
    48    30    31 ar  
    49    30    52 1   
    50    31    32 ar  
    51    31    54 1   
    52    32    33 1   
    53    32    34 ar  
    54    34    35 1   
    55    34    36 ar  
    56    36    53 1   
@<TRIPOS>SUBSTRUCTURE
     1 FM7         1 TEMP              0 ****  ****    0 ROOT
