@<TRIPOS>MOLECULE
FM7
   54    56     1     0     0
SMALL
No Charge or Current Charge


@<TRIPOS>ATOM
      1 F1          -1.9470    -4.4220     0.6210 f          1 FM7      -0.112667
      2 C3           1.9820     2.1510     0.7450 c3         1 FM7      -0.048400
      3 C30         -2.4150    -3.5270    -0.2790 c3         1 FM7       0.353300
      4 F2          -1.5520    -3.5290    -1.3200 f          1 FM7      -0.112667
      5 F3          -3.5880    -4.0160    -0.7390 f          1 FM7      -0.112667
      6 C20         -2.5830    -2.1190     0.3030 ca         1 FM7      -0.152300
      7 C21         -2.1310    -1.7940     1.6020 ca         1 FM7      -0.092000
      8 C22         -2.3020    -0.4950     2.1090 ca         1 FM7      -0.086000
      9 C23         -2.9100     0.4950     1.3200 ca         1 FM7      -0.126000
     10 C19         -3.1890    -1.1100    -0.4790 ca         1 FM7      -0.104000
     11 C18         -3.3370     0.1980     0.0140 ca         1 FM7       0.307000
     12 N2          -3.9110     1.1850    -0.7950 nu         1 FM7      -1.007000
     13 C13         -3.7070     2.5670    -0.9040 ca         1 FM7       0.345000
     14 C14         -4.8190     3.3520    -1.2540 ca         1 FM7      -0.173000
     15 C15         -4.7130     4.7490    -1.3530 ca         1 FM7      -0.090000
     16 C16         -3.4810     5.3720    -1.1090 ca         1 FM7      -0.152000
     17 C17         -2.3570     4.5990    -0.7780 ca         1 FM7      -0.052000
     18 C12         -2.4580     3.1940    -0.6770 ca         1 FM7      -0.146600
     19 C4          -1.2230     2.3860    -0.4000 c          1 FM7       0.598700
     20 O1          -0.8150     1.5510    -1.2010 o          1 FM7      -0.555100
     21 N1          -0.4940     2.6750     0.7920 n          1 FM7      -0.262300
     22 O2          -1.0050     3.6070     1.7700 oh         1 FM7      -0.463100
     23 C2           0.5790     1.7840     1.2750 c3         1 FM7       0.089000
     24 C1           3.0860     1.1570     1.2050 c3         1 FM7      -0.304400
     25 PA1          4.7650     1.6350     0.5930 p5         1 FM7       1.261500
     26 OP3          5.7540     0.6250     1.0670 o          1 FM7      -0.906500
     27 OP2          4.7510     1.6840    -0.8970 o          1 FM7      -0.906500
     28 OP1          5.1070     2.9770     1.1460 o          1 FM7      -0.906500
     29 C6           2.7290    -0.2950     0.8890 ca         1 FM7       0.056700
     30 C11          2.6550    -1.2440     1.9290 ca         1 FM7      -0.101000
     31 C10          2.2810    -2.5720     1.6600 ca         1 FM7      -0.109000
     32 C9           1.9750    -2.9660     0.3470 ca         1 FM7       0.066000
     33 Cl2          1.5150    -4.6440     0.0450 cl         1 FM7      -0.269000
     34 C8           2.0420    -2.0230    -0.7000 ca         1 FM7       0.127000
     35 Cl1          1.6620    -2.4770    -2.3630 cl         1 FM7      -0.252000
     36 C7           2.4170    -0.6970    -0.4260 ca         1 FM7      -0.096000
     37 H31C         1.9510     2.1890    -0.3500 hc         1 FM7       0.066200
     38 H32C         2.2360     3.1630     1.0850 hc         1 FM7       0.066200
     39 H21C         0.3280     0.7560     0.9830 h1         1 FM7       0.046200
     40 H22C         0.5960     1.8080     2.3730 h1         1 FM7       0.046200
     41 H1           3.1840     1.2710     2.2900 hc         1 FM7       0.038700
     42 H21         -1.6510    -2.5430     2.2290 ha         1 FM7       0.129000
     43 H19         -3.5250    -1.3380    -1.4870 ha         1 FM7       0.129000
     44 H22         -1.9610    -0.2540     3.1130 ha         1 FM7       0.115000
     45 H23         -3.0420     1.4950     1.7210 ha         1 FM7       0.126000
     46 H2          -4.6210     0.8300    -1.4360 hn         1 FM7       0.491000
     47 H14         -5.7800     2.8790    -1.4350 ha         1 FM7       0.103000
     48 H15         -5.5840     5.3460    -1.6170 ha         1 FM7       0.096000
     49 H16         -3.3940     6.4530    -1.1890 ha         1 FM7       0.106000
     50 H17         -1.3990     5.0910    -0.6240 ha         1 FM7       0.125000
     51 HA          -0.5080     4.4430     1.6170 ho         1 FM7       0.445000
     52 H11          2.8830    -0.9510     2.9510 ha         1 FM7       0.124000
     53 H7           2.4610     0.0190    -1.2410 ha         1 FM7       0.147000
     54 H10          2.2280    -3.2950     2.4700 ha         1 FM7       0.093000
@<TRIPOS>BOND
     1     1     3 1   
     2     2    23 1   
     3     2    24 1   
     4     2    37 1   
     5     2    38 1   
     6     3     4 1   
     7     3     5 1   
     8     3     6 1   
     9     6     7 ar  
    10     6    10 ar  
    11     7     8 ar  
    12     7    42 1   
    13     8     9 ar  
    14     8    44 1   
    15     9    11 ar  
    16     9    45 1   
    17    10    11 ar  
    18    10    43 1   
    19    11    12 1   
    20    12    13 1   
    21    12    46 1   
    22    13    14 ar  
    23    13    18 ar  
    24    14    15 ar  
    25    14    47 1   
    26    15    16 ar  
    27    15    48 1   
    28    16    17 ar  
    29    16    49 1   
    30    17    18 ar  
    31    17    50 1   
    32    18    19 1   
    33    19    20 2   
    34    19    21 1   
    35    21    22 1   
    36    21    23 1   
    37    22    51 1   
    38    23    39 1   
    39    23    40 1   
    40    24    25 1   
    41    24    29 1   
    42    24    41 1   
    43    25    26 1   
    44    25    27 1   
    45    25    28 1   
    46    29    30 ar  
    47    29    36 ar  
    48    30    31 ar  
    49    30    52 1   
    50    31    32 ar  
    51    31    54 1   
    52    32    33 1   
    53    32    34 ar  
    54    34    35 1   
    55    34    36 ar  
    56    36    53 1   
@<TRIPOS>SUBSTRUCTURE
     1 FM7         1 TEMP              0 ****  ****    0 ROOT
