@<TRIPOS>MOLECULE
FM8
   48    50     1     0     0
SMALL
abcg2


@<TRIPOS>ATOM
      1 C1          -2.1080     0.4080    -0.9560 c          1 FM8       0.589700
      2 N1          -1.5800     0.4420     0.2770 n          1 FM8      -0.249300
      3 O1          -1.4640     0.1240    -1.9570 o          1 FM8      -0.599100
      4 CL1          5.7980    -2.1430    -0.1520 cl         1 FM8      -0.263000
      5 C2          -0.1800     0.2230     0.5740 c3         1 FM8       0.092000
      6 N2          -4.4360    -1.8710     1.0860 na         1 FM8      -0.046700
      7 O2          -2.3170     0.9980     1.2870 oh         1 FM8      -0.449100
      8 CL2          5.2320    -1.5880    -3.2060 cl         1 FM8      -0.273000
      9 C3           0.6120     1.5100     0.7670 c3         1 FM8      -0.051400
     10 N3          -3.8210    -1.1700     2.0420 nc         1 FM8      -0.538800
     11 C4           2.0790     1.2440     1.0820 c3         1 FM8      -0.307400
     12 N4          -5.2760    -2.5890     2.9570 nd         1 FM8      -0.717000
     13 C6           2.8180     0.5240     0.0080 ca         1 FM8       0.061700
     14 C7           3.8280    -0.3770     0.3440 ca         1 FM8      -0.099000
     15 C8           4.5670    -1.0270    -0.6300 ca         1 FM8       0.130000
     16 C9           4.3260    -0.7820    -1.9760 ca         1 FM8       0.060000
     17 C10          3.3320     0.1190    -2.3280 ca         1 FM8      -0.105000
     18 C11          2.5970     0.7660    -1.3490 ca         1 FM8      -0.099000
     19 C12         -3.5770     0.7020    -1.0420 ca         1 FM8      -0.069600
     20 C13         -4.5270    -0.2860    -0.7840 ca         1 FM8      -0.101300
     21 C14         -5.8750     0.0110    -0.9610 ca         1 FM8      -0.107000
     22 C15         -6.2780     1.2650    -1.3900 ca         1 FM8      -0.122000
     23 C16         -5.3250     2.2400    -1.6570 ca         1 FM8      -0.103000
     24 C17         -3.9800     1.9550    -1.4910 ca         1 FM8      -0.064000
     25 C18         -4.1410    -1.6680    -0.3200 c3         1 FM8       0.134900
     26 C19         -4.3540    -1.6290     3.1510 cd         1 FM8       0.528900
     27 C20         -5.3030    -2.7140     1.6480 cc         1 FM8       0.399400
     28 PA1          2.9910     2.8590     1.4730 p5         1 FM8       1.261500
     29 OP1          2.8640     3.6880     0.1920 o          1 FM8      -0.905833
     30 OP2          2.2200     3.4350     2.6680 o          1 FM8      -0.905833
     31 OP3          4.4190     2.4210     1.8070 o          1 FM8      -0.905833
     32 H2          -0.1220    -0.3960     1.4740 h1         1 FM8       0.048700
     33 H2A          0.2350    -0.3660    -0.2420 h1         1 FM8       0.048700
     34 HO2         -2.8080     0.2450     1.6950 ho         1 FM8       0.462000
     35 H3           0.5180     2.1410    -0.1200 hc         1 FM8       0.067700
     36 H3A          0.1890     2.0820     1.5950 hc         1 FM8       0.067700
     37 H4           2.1280     0.6370     1.9940 hc         1 FM8       0.042700
     38 H7           4.0340    -0.5830     1.3850 ha         1 FM8       0.133000
     39 H10          3.1370     0.3150    -3.3740 ha         1 FM8       0.096000
     40 H11          1.8270     1.4580    -1.6570 ha         1 FM8       0.132000
     41 H14         -6.6200    -0.7530    -0.7710 ha         1 FM8       0.096000
     42 H15         -7.3300     1.4790    -1.5240 ha         1 FM8       0.101000
     43 H16         -5.6310     3.2200    -2.0010 ha         1 FM8       0.110000
     44 H17         -3.2380     2.7150    -1.7010 ha         1 FM8       0.144000
     45 H18         -3.0870    -1.8870    -0.4820 h1         1 FM8       0.075200
     46 H18A        -4.7050    -2.4220    -0.8670 h1         1 FM8       0.075200
     47 H19         -4.0630    -1.2580     4.1210 h5         1 FM8       0.070100
     48 H20         -5.9180    -3.3910     1.0740 h5         1 FM8       0.054100
@<TRIPOS>BOND
     1     1     2 1   
     2     1     3 2   
     3     1    19 1   
     4     2     5 1   
     5     2     7 1   
     6     4    15 1   
     7     5     9 1   
     8     5    32 1   
     9     5    33 1   
    10     6    10 1   
    11     6    25 1   
    12     6    27 1   
    13     7    34 1   
    14     8    16 1   
    15     9    11 1   
    16     9    35 1   
    17     9    36 1   
    18    10    26 2   
    19    11    13 1   
    20    11    28 1   
    21    11    37 1   
    22    12    26 1   
    23    12    27 2   
    24    13    14 ar  
    25    13    18 ar  
    26    14    15 ar  
    27    14    38 1   
    28    15    16 ar  
    29    16    17 ar  
    30    17    18 ar  
    31    17    39 1   
    32    18    40 1   
    33    19    20 ar  
    34    19    24 ar  
    35    20    21 ar  
    36    20    25 1   
    37    21    22 ar  
    38    21    41 1   
    39    22    23 ar  
    40    22    42 1   
    41    23    24 ar  
    42    23    43 1   
    43    24    44 1   
    44    25    45 1   
    45    25    46 1   
    46    26    47 1   
    47    27    48 1   
    48    28    29 1   
    49    28    30 1   
    50    28    31 1   
@<TRIPOS>SUBSTRUCTURE
     1 FM8         1 TEMP              0 ****  ****    0 ROOT
