@<TRIPOS>MOLECULE
FM8
   48    50     1     0     0
SMALL
No Charge or Current Charge


@<TRIPOS>ATOM
      1 C1          -2.0840     0.5520    -1.0500 c          1 FM8       0.589700
      2 N1          -1.5420     0.5030     0.2650 n          1 FM8      -0.249300
      3 O1          -1.3730     0.4600    -2.0450 o          1 FM8      -0.599100
      4 Cl1          5.0860    -2.7950    -0.2250 cl         1 FM8      -0.263000
      5 C2          -0.1060     0.2920     0.5410 c3         1 FM8       0.092000
      6 N2          -4.3950    -1.8760     1.2330 na         1 FM8      -0.046700
      7 O2          -2.3570     0.8290     1.4100 oh         1 FM8      -0.449100
      8 Cl2          5.0230    -1.7680    -3.2990 cl         1 FM8      -0.273000
      9 C3           0.6660     1.6070     0.7890 c3         1 FM8      -0.051400
     10 N3          -3.5680    -1.5470     2.2620 nc         1 FM8      -0.538800
     11 C4           2.1750     1.3960     1.0980 c3         1 FM8      -0.307400
     12 N4          -5.4910    -2.5020     3.0170 nd         1 FM8      -0.717000
     13 C6           2.9010     0.6170     0.0030 ca         1 FM8       0.061700
     14 C7           3.5870    -0.5720     0.3230 ca         1 FM8      -0.099000
     15 C8           4.2420    -1.3110    -0.6760 ca         1 FM8       0.130000
     16 C9           4.2150    -0.8660    -2.0150 ca         1 FM8       0.060000
     17 C10          3.5320     0.3170    -2.3410 ca         1 FM8      -0.105000
     18 C11          2.8790     1.0540    -1.3380 ca         1 FM8      -0.099000
     19 C12         -3.5800     0.7020    -1.1770 ca         1 FM8      -0.069600
     20 C13         -4.4880    -0.3000    -0.7360 ca         1 FM8      -0.101300
     21 C14         -5.8740    -0.0850    -0.8890 ca         1 FM8      -0.107000
     22 C15         -6.3580     1.0960    -1.4720 ca         1 FM8      -0.122000
     23 C16         -5.4610     2.0730    -1.9270 ca         1 FM8      -0.103000
     24 C17         -4.0790     1.8720    -1.7860 ca         1 FM8      -0.064000
     25 C18         -4.0150    -1.6460    -0.1730 c3         1 FM8       0.134900
     26 C19         -4.2620    -1.9390     3.3250 cd         1 FM8       0.528900
     27 C20         -5.5510    -2.4530     1.6980 cc         1 FM8       0.399400
     28 PA1          3.0340     2.9770     1.5310 p5         1 FM8       1.261500
     29 OP1          2.8670     3.9500     0.4150 o          1 FM8      -0.905833
     30 OP2          2.4250     3.5200     2.7790 o          1 FM8      -0.905833
     31 OP3          4.4790     2.6910     1.7570 o          1 FM8      -0.905833
     32 H2          -0.0130    -0.3500     1.4270 h1         1 FM8       0.048700
     33 H2A          0.3470    -0.2500    -0.3000 h1         1 FM8       0.048700
     34 HO2         -2.7500    -0.0350     1.7050 ho         1 FM8       0.462000
     35 H3           0.5500     2.2590    -0.0850 hc         1 FM8       0.067700
     36 H3A          0.1990     2.1330     1.6300 hc         1 FM8       0.067700
     37 H4           2.2320     0.8310     2.0350 hc         1 FM8       0.042700
     38 H7           3.6130    -0.9260     1.3490 ha         1 FM8       0.133000
     39 H10          3.5090     0.6640    -3.3700 ha         1 FM8       0.096000
     40 H11          2.3570     1.9690    -1.6050 ha         1 FM8       0.132000
     41 H14         -6.5840    -0.8440    -0.5690 ha         1 FM8       0.096000
     42 H15         -7.4290     1.2480    -1.5850 ha         1 FM8       0.101000
     43 H16         -5.8340     2.9840    -2.3890 ha         1 FM8       0.110000
     44 H17         -3.3880     2.6340    -2.1410 ha         1 FM8       0.144000
     45 H18         -2.9280    -1.7550    -0.2640 h1         1 FM8       0.075200
     46 H18A        -4.4560    -2.4490    -0.7770 h1         1 FM8       0.075200
     47 H19         -3.9160    -1.8360     4.3480 h5         1 FM8       0.070100
     48 H20         -6.3510    -2.8010     1.0550 h5         1 FM8       0.054100
@<TRIPOS>BOND
     1     1     2 1   
     2     1     3 2   
     3     1    19 1   
     4     2     5 1   
     5     2     7 1   
     6     4    15 1   
     7     5     9 1   
     8     5    32 1   
     9     5    33 1   
    10     6    10 1   
    11     6    25 1   
    12     6    27 1   
    13     7    34 1   
    14     8    16 1   
    15     9    11 1   
    16     9    35 1   
    17     9    36 1   
    18    10    26 2   
    19    11    13 1   
    20    11    28 1   
    21    11    37 1   
    22    12    26 1   
    23    12    27 2   
    24    13    14 ar  
    25    13    18 ar  
    26    14    15 ar  
    27    14    38 1   
    28    15    16 ar  
    29    16    17 ar  
    30    17    18 ar  
    31    17    39 1   
    32    18    40 1   
    33    19    20 ar  
    34    19    24 ar  
    35    20    21 ar  
    36    20    25 1   
    37    21    22 ar  
    38    21    41 1   
    39    22    23 ar  
    40    22    42 1   
    41    23    24 ar  
    42    23    43 1   
    43    24    44 1   
    44    25    45 1   
    45    25    46 1   
    46    26    47 1   
    47    27    48 1   
    48    28    29 1   
    49    28    30 1   
    50    28    31 1   
@<TRIPOS>SUBSTRUCTURE
     1 FM8         1 TEMP              0 ****  ****    0 ROOT
