@<TRIPOS>MOLECULE
FM9
   44    46     1     0     0
SMALL
No Charge or Current Charge


@<TRIPOS>ATOM
      1 C1           5.1710     1.6920     0.7330 ca         1 FM9       0.163900
      2 N1           5.7580     0.5130     0.4490 nb         1 FM9      -0.274000
      3 S1          -0.6780     2.4940     0.3670 ss         1 FM9       0.082600
      4 O1          -2.8760     1.7390    -1.5230 o          1 FM9      -0.567100
      5 F1          -7.9520    -1.1280     1.0730 f          1 FM9      -0.171000
      6 C10         -4.2460     0.2230    -0.2970 ca         1 FM9      -0.163600
      7 C11         -4.3400    -0.5390     0.8930 ca         1 FM9      -0.042000
      8 C12         -5.5900    -0.9960     1.3490 ca         1 FM9      -0.161500
      9 C13         -6.7530    -0.6890     0.6310 ca         1 FM9       0.197000
     10 C14         -6.6790     0.0810    -0.5370 ca         1 FM9      -0.161500
     11 C15         -5.4330     0.5410    -0.9980 ca         1 FM9      -0.042000
     12 C16          4.9530    -2.9870    -0.4680 c3         1 FM9       0.244500
     13 C17          5.9880    -3.9160    -1.1280 c3         1 FM9      -0.111600
     14 C18          4.4110    -3.5720     0.8520 c3         1 FM9      -0.111600
     15 C2           3.0220     0.9710     0.2840 ca         1 FM9       0.120000
     16 N2           3.8520     1.9690     0.6710 nb         1 FM9      -0.227000
     17 C3           3.5560    -0.2980    -0.0330 ca         1 FM9      -0.264000
     18 N3           0.6510     0.2760    -0.1750 nc         1 FM9      -0.701000
     19 C4           4.9410    -0.4800     0.0700 ca         1 FM9       0.382900
     20 N4          -1.7420     0.1020    -0.3830 n          1 FM9      -0.371300
     21 N5           5.5710    -1.6800    -0.2230 nu         1 FM9      -0.934100
     22 C5           1.5660     1.2310     0.2010 cc         1 FM9       0.234000
     23 C6           1.0690     2.4750     0.5220 cd         1 FM9      -0.259000
     24 C7          -0.5610     0.8120    -0.1820 cd         1 FM9       0.522300
     25 C8          -2.9180     0.7460    -0.8090 c          1 FM9       0.619700
     26 C9          -1.6790    -1.3740    -0.5250 c3         1 FM9       0.099300
     27 H1           5.8270     2.5030     1.0430 h5         1 FM9       0.042100
     28 H2          -3.4540    -0.7680     1.4820 ha         1 FM9       0.131000
     29 H3          -5.6570    -1.5820     2.2620 ha         1 FM9       0.139500
     30 H4          -7.5870     0.3220    -1.0850 ha         1 FM9       0.139500
     31 H5          -5.3910     1.1380    -1.9070 ha         1 FM9       0.131000
     32 H6           4.1160    -2.8760    -1.1730 h1         1 FM9       0.059700
     33 H7           6.8510    -4.0770    -0.4710 hc         1 FM9       0.044533
     34 H8           5.5400    -4.8920    -1.3490 hc         1 FM9       0.044533
     35 H9           6.3450    -3.4890    -2.0730 hc         1 FM9       0.044533
     36 H10          3.6540    -2.9130     1.2930 hc         1 FM9       0.044533
     37 H11          3.9450    -4.5490     0.6740 hc         1 FM9       0.044533
     38 H12          5.2190    -3.7060     1.5820 hc         1 FM9       0.044533
     39 H13          2.9070    -1.1070    -0.3490 ha         1 FM9       0.146000
     40 H14          6.5850    -1.6620    -0.1150 hn         1 FM9       0.501000
     41 H15          1.6050     3.3590     0.8440 h4         1 FM9       0.178000
     42 H16         -1.4340    -1.8290     0.4440 h1         1 FM9       0.053367
     43 H17         -2.6340    -1.7820    -0.8800 h1         1 FM9       0.053367
     44 H18         -0.9030    -1.6470    -1.2520 h1         1 FM9       0.053367
@<TRIPOS>BOND
     1     1     2 ar  
     2     1    16 ar  
     3     1    27 1   
     4     2    19 ar  
     5     3    23 1   
     6     3    24 1   
     7     4    25 2   
     8     5     9 1   
     9     6     7 ar  
    10     6    11 ar  
    11     6    25 1   
    12     7     8 ar  
    13     7    28 1   
    14     8     9 ar  
    15     8    29 1   
    16     9    10 ar  
    17    10    11 ar  
    18    10    30 1   
    19    11    31 1   
    20    12    13 1   
    21    12    14 1   
    22    12    21 1   
    23    12    32 1   
    24    13    33 1   
    25    13    34 1   
    26    13    35 1   
    27    14    36 1   
    28    14    37 1   
    29    14    38 1   
    30    15    16 ar  
    31    15    17 ar  
    32    15    22 1   
    33    17    19 ar  
    34    17    39 1   
    35    18    22 1   
    36    18    24 2   
    37    19    21 1   
    38    20    24 1   
    39    20    25 1   
    40    20    26 1   
    41    21    40 1   
    42    22    23 2   
    43    23    41 1   
    44    26    42 1   
    45    26    43 1   
    46    26    44 1   
@<TRIPOS>SUBSTRUCTURE
     1 FM9         1 TEMP              0 ****  ****    0 ROOT
