@<TRIPOS>MOLECULE
FM9
   44    46     1     0     0
SMALL
bcc


@<TRIPOS>ATOM
      1 C1           5.2770     1.6830     0.3240 ca         1 FM9       0.689900
      2 N1           5.7340     0.4520     0.1970 nb         1 FM9      -0.800000
      3 S1          -0.4440     2.8810     0.0710 ss         1 FM9      -0.062300
      4 O1          -2.9340     2.1930    -0.1150 o          1 FM9      -0.567100
      5 F1          -7.5060    -2.0050     0.3740 f          1 FM9      -0.135900
      6 C10         -4.0310     0.1140    -0.0320 ca         1 FM9      -0.163600
      7 C11         -4.1230    -0.9060     0.9120 ca         1 FM9      -0.060000
      8 C12         -5.3000    -1.6230     1.0590 ca         1 FM9      -0.179500
      9 C13         -6.3700    -1.3090     0.2430 ca         1 FM9       0.161900
     10 C14         -6.3110    -0.3000    -0.7000 ca         1 FM9      -0.179500
     11 C15         -5.1360     0.4240    -0.8200 ca         1 FM9      -0.060000
     12 C16          4.4990    -2.9650    -0.2880 c3         1 FM9       0.244500
     13 C17          5.3140    -4.0180    -1.0230 c3         1 FM9      -0.111600
     14 C18          4.0070    -3.4760     1.0620 c3         1 FM9      -0.111600
     15 C2           3.1080     1.1200     0.1190 ca         1 FM9       0.448300
     16 N2           4.0210     2.0870     0.2910 nb         1 FM9      -0.753000
     17 C3           3.4520    -0.2080    -0.0160 ca         1 FM9      -0.412600
     18 N3           0.7190     0.6040    -0.0700 nc         1 FM9      -0.701000
     19 C4           4.8250    -0.5190     0.0140 ca         1 FM9       0.711200
     20 N4          -1.5960     0.3850    -0.2160 n          1 FM9      -0.438300
     21 N5           5.2990    -1.7610    -0.1500 nu         1 FM9      -0.878900
     22 C5           1.7040     1.5400     0.0790 cc         1 FM9       0.299300
     23 C6           1.2670     2.8230     0.1790 cd         1 FM9      -0.197400
     24 C7          -0.4510     1.1500    -0.0860 cd         1 FM9       0.522300
     25 C8          -2.8260     0.9790    -0.1310 c          1 FM9       0.686700
     26 C9          -1.3900    -1.0320    -0.5030 c3         1 FM9       0.099300
     27 H1           6.0260     2.4540     0.4740 h5         1 FM9       0.042100
     28 H2          -3.2850    -1.1440     1.5530 ha         1 FM9       0.149000
     29 H3          -5.3810    -2.4080     1.7980 ha         1 FM9       0.157500
     30 H4          -7.1670    -0.0780    -1.3240 ha         1 FM9       0.157500
     31 H5          -5.0810     1.2250    -1.5450 ha         1 FM9       0.149000
     32 H6           3.6340    -2.7190    -0.9100 h1         1 FM9       0.059700
     33 H7           6.2110    -4.2840    -0.4600 hc         1 FM9       0.044533
     34 H8           4.7260    -4.9250    -1.1540 hc         1 FM9       0.044533
     35 H9           5.6200    -3.6650    -2.0080 hc         1 FM9       0.044533
     36 H10          3.4430    -2.7150     1.6020 hc         1 FM9       0.044533
     37 H11          3.3560    -4.3400     0.9280 hc         1 FM9       0.044533
     38 H12          4.8480    -3.7800     1.6880 hc         1 FM9       0.044533
     39 H13          2.6890    -0.9610    -0.1370 ha         1 FM9       0.164000
     40 H14          6.2970    -1.8670    -0.0400 hn         1 FM9       0.445800
     41 H15          1.8550     3.7180     0.3040 h4         1 FM9       0.196000
     42 H16         -1.0620    -1.5710     0.3840 h1         1 FM9       0.053367
     43 H17         -2.3110    -1.4690    -0.8710 h1         1 FM9       0.053367
     44 H18         -0.6310    -1.1340    -1.2720 h1         1 FM9       0.053367
@<TRIPOS>BOND
     1     1     2 ar  
     2     1    16 ar  
     3     1    27 1   
     4     2    19 ar  
     5     3    23 1   
     6     3    24 1   
     7     4    25 2   
     8     5     9 1   
     9     6     7 ar  
    10     6    11 ar  
    11     6    25 1   
    12     7     8 ar  
    13     7    28 1   
    14     8     9 ar  
    15     8    29 1   
    16     9    10 ar  
    17    10    11 ar  
    18    10    30 1   
    19    11    31 1   
    20    12    13 1   
    21    12    14 1   
    22    12    21 1   
    23    12    32 1   
    24    13    33 1   
    25    13    34 1   
    26    13    35 1   
    27    14    36 1   
    28    14    37 1   
    29    14    38 1   
    30    15    16 ar  
    31    15    17 ar  
    32    15    22 1   
    33    17    19 ar  
    34    17    39 1   
    35    18    22 1   
    36    18    24 2   
    37    19    21 1   
    38    20    24 1   
    39    20    25 1   
    40    20    26 1   
    41    21    40 1   
    42    22    23 2   
    43    23    41 1   
    44    26    42 1   
    45    26    43 1   
    46    26    44 1   
@<TRIPOS>SUBSTRUCTURE
     1 FM9         1 TEMP              0 ****  ****    0 ROOT
