@<TRIPOS>MOLECULE
FMB
   31    33     1     0     0
SMALL
bcc


@<TRIPOS>ATOM
      1 N1          -0.4310     0.1290    -4.1450 ns         1 FMB      -0.491400
      2 C2          -1.3320     0.8370    -3.4040 cc         1 FMB       0.472800
      3 N3          -1.2580     1.0250    -2.1350 nd         1 FMB      -0.557100
      4 C4          -0.1690     0.4450    -1.5510 cd         1 FMB       0.008100
      5 C5           0.7860    -0.2840    -2.2380 cc         1 FMB      -0.213900
      6 C6           0.7040    -0.4950    -3.6570 c          1 FMB       0.742100
      7 O6           1.4770    -1.1160    -4.3620 o          1 FMB      -0.608500
      8 N7           1.6910    -0.6860    -1.3290 na         1 FMB       0.033400
      9 N8           1.3850    -0.2660    -0.1110 nc         1 FMB      -0.467800
     10 C9           0.2630     0.4210    -0.2060 cd         1 FMB       0.307600
     11 C1          -0.4170     1.0470     0.9730 c5         1 FMB       0.118800
     12 C7          -1.5360     0.1630     1.5170 c5         1 FMB       0.133100
     13 O2          -2.4580     0.9850     2.1850 oh         1 FMB      -0.583800
     14 C3          -0.7540    -0.7150     2.4910 c5         1 FMB       0.071100
     15 O3          -1.6100    -1.2860     3.4420 oh         1 FMB      -0.592800
     16 C8           0.2590     0.2810     3.0700 c5         1 FMB       0.114100
     17 O4           0.4830     1.2410     2.0450 os         1 FMB      -0.367600
     18 C10          1.5510    -0.3780     3.4840 c3         1 FMB       0.134400
     19 O5           2.3900     0.5780     4.0870 oh         1 FMB      -0.578800
     20 HN1         -0.6060     0.0510    -5.1380 hn         1 FMB       0.333500
     21 H2          -2.1550     1.2540    -3.9700 h5         1 FMB       0.053800
     22 HN7          2.5270    -1.2280    -1.4800 hn         1 FMB       0.343700
     23 H1          -0.8250     2.0150     0.6600 h1         1 FMB       0.112700
     24 H6          -2.0170    -0.4250     0.7260 h1         1 FMB       0.062700
     25 HO2         -3.0380     0.4240     2.7130 ho         1 FMB       0.425000
     26 H3          -0.2280    -1.4900     1.9180 h1         1 FMB       0.050700
     27 HO3         -1.1860    -2.0590     3.8250 ho         1 FMB       0.415000
     28 H4          -0.1890     0.7780     3.9410 h1         1 FMB       0.083700
     29 H5'1         2.0160    -0.8340     2.6010 h1         1 FMB       0.021200
     30 H5'2         1.3050    -1.1940     4.1800 h1         1 FMB       0.021200
     31 HO5          3.1990     0.1370     4.3600 ho         1 FMB       0.401000
@<TRIPOS>BOND
     1     1     2 1   
     2     1     6 1   
     3     1    20 1   
     4     2     3 2   
     5     2    21 1   
     6     3     4 1   
     7     4     5 2   
     8     4    10 1   
     9     5     6 1   
    10     5     8 1   
    11     6     7 2   
    12     8     9 1   
    13     8    22 1   
    14     9    10 2   
    15    10    11 1   
    16    11    12 1   
    17    11    17 1   
    18    11    23 1   
    19    12    13 1   
    20    12    14 1   
    21    12    24 1   
    22    13    25 1   
    23    14    15 1   
    24    14    16 1   
    25    14    26 1   
    26    15    27 1   
    27    16    17 1   
    28    16    18 1   
    29    16    28 1   
    30    18    19 1   
    31    18    29 1   
    32    18    30 1   
    33    19    31 1   
@<TRIPOS>SUBSTRUCTURE
     1 FMB         1 TEMP              0 ****  ****    0 ROOT
