@<TRIPOS>MOLECULE
FMB
   31    33     1     0     0
SMALL
No Charge or Current Charge


@<TRIPOS>ATOM
      1 N1          -0.2990     0.7810    -4.4380 ns         1 FMB      -0.424400
      2 C2          -0.9390     1.6150    -3.5510 cc         1 FMB       0.472800
      3 N3          -0.9090     1.4800    -2.2190 nd         1 FMB      -0.557100
      4 C4          -0.1550     0.3940    -1.7660 cd         1 FMB       0.073400
      5 C5           0.4810    -0.4400    -2.6300 cc         1 FMB      -0.264600
      6 C6           0.4460    -0.2900    -4.0770 c          1 FMB       0.599600
      7 O6           1.0050    -1.0200    -4.8790 o          1 FMB      -0.533000
      8 N7           1.0990    -1.3680    -1.7950 na         1 FMB       0.033800
      9 N8           0.8620    -1.1340    -0.4430 nc         1 FMB      -0.467800
     10 C9           0.0930    -0.0470    -0.4420 cd         1 FMB       0.242300
     11 C1          -0.4260     0.5750     0.8480 c5         1 FMB       0.142000
     12 C7          -1.4090    -0.4200     1.5620 c5         1 FMB       0.156300
     13 O2          -2.5490     0.2310     2.1340 oh         1 FMB      -0.706000
     14 C3          -0.5210    -0.9590     2.7230 c5         1 FMB       0.094300
     15 O3          -1.3360    -1.4630     3.8010 oh         1 FMB      -0.715000
     16 C8           0.2670     0.3390     3.0810 c5         1 FMB       0.137300
     17 O4           0.6640     0.8310     1.7810 os         1 FMB      -0.414000
     18 C10          1.5100     0.1220     3.9900 c3         1 FMB       0.157600
     19 O5           2.0840     1.3750     4.4040 oh         1 FMB      -0.701000
     20 HN1         -0.3780     0.9600    -5.4290 hn         1 FMB       0.333500
     21 H2          -1.4830     2.4110    -4.0450 h5         1 FMB       0.053800
     22 HN7          1.6740    -2.1550    -2.0990 hn         1 FMB       0.394000
     23 H1          -0.9280     1.5210     0.6080 h1         1 FMB       0.112700
     24 H6          -1.7290    -1.2330     0.8940 h1         1 FMB       0.062700
     25 HO2         -2.6250    -0.2240     3.0120 ho         1 FMB       0.524000
     26 H3           0.1620    -1.7370     2.3530 h1         1 FMB       0.050700
     27 HO3         -0.7860    -2.0980     4.3200 ho         1 FMB       0.514000
     28 H4          -0.3930     1.0780     3.5560 h1         1 FMB       0.083700
     29 H5'1         2.2500    -0.4790     3.4450 h1         1 FMB       0.021200
     30 H5'2         1.2010    -0.4530     4.8730 h1         1 FMB       0.021200
     31 HO5          2.8950     1.1630     4.9220 ho         1 FMB       0.500000
@<TRIPOS>BOND
     1     1     2 1   
     2     1     6 1   
     3     1    20 1   
     4     2     3 2   
     5     2    21 1   
     6     3     4 1   
     7     4     5 2   
     8     4    10 1   
     9     5     6 1   
    10     5     8 1   
    11     6     7 2   
    12     8     9 1   
    13     8    22 1   
    14     9    10 2   
    15    10    11 1   
    16    11    12 1   
    17    11    17 1   
    18    11    23 1   
    19    12    13 1   
    20    12    14 1   
    21    12    24 1   
    22    13    25 1   
    23    14    15 1   
    24    14    16 1   
    25    14    26 1   
    26    15    27 1   
    27    16    17 1   
    28    16    18 1   
    29    16    28 1   
    30    18    19 1   
    31    18    29 1   
    32    18    30 1   
    33    19    31 1   
@<TRIPOS>SUBSTRUCTURE
     1 FMB         1 TEMP              0 ****  ****    0 ROOT
