@<TRIPOS>MOLECULE
FMC
   32    34     1     0     0
SMALL
No Charge or Current Charge


@<TRIPOS>ATOM
      1 N1          49.7620    98.6600    -7.2980 nb         1 FMC      -0.270000
      2 C2          48.4440    98.9280    -7.0740 ca         1 FMC       0.138900
      3 N3          47.7770    98.8030    -5.8970 nb         1 FMC      -0.143000
      4 C4          48.5420    98.3670    -4.8790 ca         1 FMC       0.011700
      5 C5          49.8590    98.0720    -4.9960 ca         1 FMC      -0.205200
      6 C6          50.4780    98.2270    -6.2430 ca         1 FMC       0.406900
      7 N6          51.7930    97.9660    -6.4710 nv         1 FMC      -1.092900
      8 N7          50.3210    97.6440    -3.7640 na         1 FMC      -0.051400
      9 N8          49.2690    97.6670    -2.8260 nc         1 FMC      -0.488100
     10 C9          48.1860    98.1090    -3.5030 cd         1 FMC       0.244300
     11 C1          46.8180    98.2710    -2.8490 c5         1 FMC       0.160000
     12 C7          46.2250    96.8750    -2.4650 c5         1 FMC       0.152300
     13 O2          45.4190    96.2920    -3.4920 oh         1 FMC      -0.679000
     14 C3          45.3320    97.2690    -1.2530 c5         1 FMC       0.103300
     15 O3          44.0960    97.8650    -1.6980 oh         1 FMC      -0.691000
     16 C8          46.2840    98.2830    -0.5340 c5         1 FMC       0.130300
     17 O4          46.8750    99.0530    -1.6180 os         1 FMC      -0.428000
     18 C10         47.4010    97.6020     0.3180 c3         1 FMC       0.152600
     19 O5          48.0900    98.5610     1.1400 oh         1 FMC      -0.707000
     20 H2          47.8650    99.2780    -7.9260 h5         1 FMC       0.050100
     21 HN7         51.2630    97.3370    -3.5220 hn         1 FMC       0.376000
     22 H5          46.9340    96.8390     0.9550 h1         1 FMC       0.025200
     23 H5'A        48.1090    97.0850    -0.3430 h1         1 FMC       0.025200
     24 H1          46.1530    98.7940    -3.5490 h1         1 FMC       0.103700
     25 H6          47.0170    96.1780    -2.1580 h1         1 FMC       0.046700
     26 HO2         44.5210    96.6670    -3.3110 ho         1 FMC       0.504000
     27 H3          45.1230    96.3990    -0.6150 h1         1 FMC       0.045700
     28 HO3         43.5940    98.1440    -0.8950 ho         1 FMC       0.501000
     29 H4          45.7190    98.9570     0.1230 h1         1 FMC       0.076700
     30 HO5         48.8370    98.0860     1.5730 ho         1 FMC       0.500000
     31 HN6         52.1890    98.2840    -7.3540 hn         1 FMC       0.500500
     32 HN6A        52.4360    97.9330    -5.6840 hn         1 FMC       0.500500
@<TRIPOS>BOND
     1     1     2 ar  
     2     1     6 ar  
     3     2     3 ar  
     4     2    20 1   
     5     3     4 ar  
     6     4     5 ar  
     7     4    10 1   
     8     5     6 ar  
     9     5     8 1   
    10     6     7 1   
    11     7    31 1   
    12     7    32 1   
    13     8     9 1   
    14     8    21 1   
    15     9    10 2   
    16    10    11 1   
    17    11    12 1   
    18    11    17 1   
    19    11    24 1   
    20    12    13 1   
    21    12    14 1   
    22    12    25 1   
    23    13    26 1   
    24    14    15 1   
    25    14    16 1   
    26    14    27 1   
    27    15    28 1   
    28    16    17 1   
    29    16    18 1   
    30    16    29 1   
    31    18    19 1   
    32    18    22 1   
    33    18    23 1   
    34    19    30 1   
@<TRIPOS>SUBSTRUCTURE
     1 FMC         1 TEMP              0 ****  ****    0 ROOT
