@<TRIPOS>MOLECULE
FMC
   32    34     1     0     0
SMALL
abcg2


@<TRIPOS>ATOM
      1 N1          49.6880    98.8390    -7.2950 nb         1 FMC      -0.270000
      2 C2          48.4220    99.1850    -6.9840 ca         1 FMC       0.138900
      3 N3          47.7890    99.0250    -5.8380 nb         1 FMC      -0.143000
      4 C4          48.5500    98.4380    -4.8800 ca         1 FMC       0.011700
      5 C5          49.8760    98.0400    -5.0930 ca         1 FMC      -0.205200
      6 C6          50.4540    98.2570    -6.3690 ca         1 FMC       0.406900
      7 N6          51.7090    97.9030    -6.6840 nv         1 FMC      -1.092900
      8 N7          50.3080    97.5000    -3.9220 na         1 FMC      -0.051400
      9 N8          49.3460    97.5240    -2.9820 nc         1 FMC      -0.488100
     10 C9          48.2760    98.0850    -3.5290 cd         1 FMC       0.244300
     11 C1          46.9930    98.2510    -2.7870 c5         1 FMC       0.160000
     12 C7          46.2740    96.9400    -2.4580 c5         1 FMC       0.152300
     13 O2          45.6030    96.4560    -3.6000 oh         1 FMC      -0.679000
     14 C3          45.3940    97.3490    -1.2710 c5         1 FMC       0.103300
     15 O3          44.2340    98.0030    -1.7760 oh         1 FMC      -0.691000
     16 C8          46.3200    98.3150    -0.5240 c5         1 FMC       0.130300
     17 O4          47.2140    98.8710    -1.5160 os         1 FMC      -0.428000
     18 C10         47.1060    97.6500     0.5870 c3         1 FMC       0.152600
     19 O5          47.8800    98.6470     1.2540 oh         1 FMC      -0.707000
     20 H2          47.8640    99.6530    -7.7880 h5         1 FMC       0.050100
     21 HN7         51.2140    97.1230    -3.6950 hn         1 FMC       0.376000
     22 H5          46.3980    97.1830     1.2810 h1         1 FMC       0.025200
     23 H5'A        47.7550    96.8700     0.1750 h1         1 FMC       0.025200
     24 H1          46.3230    98.8670    -3.3970 h1         1 FMC       0.103700
     25 H6          47.0100    96.2130    -2.1020 h1         1 FMC       0.046700
     26 HO2         45.3350    95.5420    -3.4380 ho         1 FMC       0.504000
     27 H3          45.1120    96.4910    -0.6550 h1         1 FMC       0.045700
     28 HO3         43.7160    98.3150    -1.0250 ho         1 FMC       0.501000
     29 H4          45.7370    99.1370    -0.0990 h1         1 FMC       0.076700
     30 HO5         48.4310    98.2110     1.9140 ho         1 FMC       0.500000
     31 HN6         52.0650    98.1190    -7.6010 hn         1 FMC       0.500500
     32 HN6A        52.3350    97.4940    -6.0110 hn         1 FMC       0.500500
@<TRIPOS>BOND
     1     1     2 ar  
     2     1     6 ar  
     3     2     3 ar  
     4     2    20 1   
     5     3     4 ar  
     6     4     5 ar  
     7     4    10 1   
     8     5     6 ar  
     9     5     8 1   
    10     6     7 1   
    11     7    31 1   
    12     7    32 1   
    13     8     9 1   
    14     8    21 1   
    15     9    10 2   
    16    10    11 1   
    17    11    12 1   
    18    11    17 1   
    19    11    24 1   
    20    12    13 1   
    21    12    14 1   
    22    12    25 1   
    23    13    26 1   
    24    14    15 1   
    25    14    16 1   
    26    14    27 1   
    27    15    28 1   
    28    16    17 1   
    29    16    18 1   
    30    16    29 1   
    31    18    19 1   
    32    18    22 1   
    33    18    23 1   
    34    19    30 1   
@<TRIPOS>SUBSTRUCTURE
     1 FMC         1 TEMP              0 ****  ****    0 ROOT
