@<TRIPOS>MOLECULE
FMD
   48    50     1     0     0
SMALL
abcg2


@<TRIPOS>ATOM
      1 F17         -4.2770    -0.9770     1.4680 f          1 FMD      -0.170000
      2 C1          -3.9500    -0.6060     0.2200 ca         1 FMD       0.167000
      3 C2          -2.5940    -0.4410    -0.0680 ca         1 FMD       0.038000
      4 C18         -1.6240    -0.6790     0.9410 cg         1 FMD      -0.110000
      5 C19         -0.7800    -0.8830     1.7780 c1         1 FMD      -0.113100
      6 C20          0.3250    -1.1720     2.6970 c3         1 FMD       0.268400
      7 O27          1.2920    -1.9810     2.0700 oh         1 FMD      -0.644000
      8 C23          0.9080     0.1360     3.2690 c3         1 FMD       0.107500
      9 N28         -0.1720     0.8590     3.9090 n8         1 FMD      -1.003200
     10 C24          2.1310    -0.1450     4.1620 c3         1 FMD       0.131300
     11 O26          1.7920    -0.9820     5.2510 oh         1 FMD      -0.647000
     12 C25          2.7960     1.1420     4.6230 c3         1 FMD      -0.134100
     13 C3          -2.2620    -0.0530    -1.3720 ca         1 FMD      -0.034800
     14 C4          -3.2900     0.1360    -2.3100 ca         1 FMD       0.028600
     15 N9          -2.7190     0.4960    -3.5180 ns         1 FMD      -0.387100
     16 C8          -1.3600     0.5570    -3.4400 c          1 FMD       0.585200
     17 O10         -0.6310     0.8510    -4.3850 o          1 FMD      -0.597000
     18 C5          -4.6230    -0.0330    -2.0030 ca         1 FMD      -0.110000
     19 C6          -4.9540    -0.4110    -0.7040 ca         1 FMD      -0.132000
     20 C7          -1.0080     0.2140    -2.0510 cc         1 FMD      -0.223400
     21 C11          0.2430     0.1750    -1.4930 cf         1 FMD       0.046800
     22 C12          1.5220     0.4060    -2.0160 cd         1 FMD      -0.249800
     23 C13          2.7420     0.3370    -1.3100 cc         1 FMD       0.126100
     24 O21          2.8020     0.0270    -0.0110 os         1 FMD      -0.340100
     25 C22          4.0930     0.0480     0.5820 c3         1 FMD       0.147900
     26 C14          3.7800     0.6410    -2.1950 cc         1 FMD      -0.281000
     27 C15          3.1750     0.8870    -3.4230 cd         1 FMD      -0.115000
     28 N16          1.8550     0.7460    -3.3080 na         1 FMD      -0.064000
     29 H20         -0.0650    -1.7640     3.5320 h1         1 FMD       0.099700
     30 H27          1.6450    -1.5100     1.3050 ho         1 FMD       0.452000
     31 H23          1.2530     0.7440     2.4240 h1         1 FMD       0.069700
     32 H281        -0.4610     0.4010     4.7650 hn         1 FMD       0.402000
     33 H282         0.1130     1.7970     4.1550 hn         1 FMD       0.402000
     34 H24          2.8590    -0.7130     3.5770 h1         1 FMD       0.084700
     35 H26          1.3350    -0.4560     5.9140 ho         1 FMD       0.432000
     36 H251         3.6740     0.9240     5.2320 hc         1 FMD       0.043033
     37 H252         3.1230     1.7410     3.7720 hc         1 FMD       0.043033
     38 H253         2.1190     1.7580     5.2200 hc         1 FMD       0.043033
     39 HN9         -3.2350     0.6950    -4.3600 hn         1 FMD       0.340500
     40 HC5         -5.3970     0.1200    -2.7430 ha         1 FMD       0.124000
     41 HC6         -5.9870    -0.5550    -0.4180 ha         1 FMD       0.135000
     42 H11          0.2640    -0.0780    -0.4420 ha         1 FMD       0.201000
     43 H221         3.9640    -0.2260     1.6260 h1         1 FMD       0.045033
     44 H222         4.7610    -0.6730     0.1090 h1         1 FMD       0.045033
     45 H223         4.5370     1.0440     0.5280 h1         1 FMD       0.045033
     46 H14          4.8380     0.6820    -1.9970 ha         1 FMD       0.142000
     47 H15          3.6310     1.1540    -4.3620 h4         1 FMD       0.152000
     48 H16          1.1430     0.8700    -4.0270 hn         1 FMD       0.405000
@<TRIPOS>BOND
     1     1     2 1   
     2     2     3 ar  
     3     2    19 ar  
     4     3     4 1   
     5     3    13 ar  
     6     4     5 3   
     7     5     6 1   
     8     6     7 1   
     9     6     8 1   
    10     6    29 1   
    11     7    30 1   
    12     8     9 1   
    13     8    10 1   
    14     8    31 1   
    15     9    32 1   
    16     9    33 1   
    17    10    11 1   
    18    10    12 1   
    19    10    34 1   
    20    11    35 1   
    21    12    36 1   
    22    12    37 1   
    23    12    38 1   
    24    13    14 ar  
    25    13    20 1   
    26    14    15 1   
    27    14    18 ar  
    28    15    16 1   
    29    15    39 1   
    30    16    17 2   
    31    16    20 1   
    32    18    19 ar  
    33    18    40 1   
    34    19    41 1   
    35    20    21 2   
    36    21    22 1   
    37    21    42 1   
    38    22    23 2   
    39    22    28 1   
    40    23    24 1   
    41    23    26 1   
    42    24    25 1   
    43    25    43 1   
    44    25    44 1   
    45    25    45 1   
    46    26    27 2   
    47    26    46 1   
    48    27    28 1   
    49    27    47 1   
    50    28    48 1   
@<TRIPOS>SUBSTRUCTURE
     1 FMD         1 TEMP              0 ****  ****    0 ROOT
