@<TRIPOS>MOLECULE
FMD
   48    50     1     0     0
SMALL
No Charge or Current Charge


@<TRIPOS>ATOM
      1 F17         -4.4670    -1.3030     1.3690 f          1 FMD      -0.170000
      2 C1          -4.0640    -0.8490     0.1570 ca         1 FMD       0.167000
      3 C2          -2.6870    -0.5990    -0.0950 ca         1 FMD       0.038000
      4 C18         -1.7310    -0.8330     0.9540 cg         1 FMD      -0.110000
      5 C19         -0.9150    -1.0170     1.8370 c1         1 FMD      -0.113100
      6 C20          0.1260    -1.2160     2.8590 c3         1 FMD       0.268400
      7 O27          1.0540    -2.1950     2.3660 oh         1 FMD      -0.644000
      8 C23          0.8760     0.1190     3.2280 c3         1 FMD       0.107500
      9 N28         -0.0540     1.1970     3.7020 n8         1 FMD      -1.003200
     10 C24          2.0130    -0.1110     4.2830 c3         1 FMD       0.131300
     11 O26          1.4390    -0.3840     5.5750 oh         1 FMD      -0.647000
     12 C25          2.9610     1.1010     4.4250 c3         1 FMD      -0.134100
     13 C3          -2.3280    -0.1240    -1.3860 ca         1 FMD      -0.034800
     14 C4          -3.3200     0.0760    -2.3400 ca         1 FMD       0.028600
     15 N9          -2.7070     0.5350    -3.4960 ns         1 FMD      -0.387100
     16 C8          -1.3540     0.6700    -3.4170 c          1 FMD       0.585200
     17 O10         -0.6270     1.0590    -4.3190 o          1 FMD      -0.597000
     18 C5          -4.6760    -0.1640    -2.1090 ca         1 FMD      -0.110000
     19 C6          -5.0450    -0.6340    -0.8360 ca         1 FMD      -0.132000
     20 C7          -1.0340     0.2410    -2.0230 cc         1 FMD      -0.223400
     21 C11          0.2210     0.2010    -1.4610 cf         1 FMD       0.046800
     22 C12          1.5510     0.5290    -1.9920 cd         1 FMD      -0.249800
     23 C13          2.7480     0.4260    -1.3490 cc         1 FMD       0.126100
     24 O21          2.7940    -0.0300    -0.0600 os         1 FMD      -0.340100
     25 C22          4.0560    -0.1340     0.6200 c3         1 FMD       0.147900
     26 C14          3.8190     0.8250    -2.1580 cc         1 FMD      -0.281000
     27 C15          3.2950     1.1950    -3.3680 cd         1 FMD      -0.115000
     28 N16          1.9010     1.0100    -3.2670 na         1 FMD      -0.064000
     29 H20         -0.3650    -1.5910     3.7680 h1         1 FMD       0.099700
     30 H27          1.2690    -1.9320     1.4460 ho         1 FMD       0.452000
     31 H23          1.3460     0.4800     2.3010 h1         1 FMD       0.069700
     32 H281        -0.2430     1.0030     4.6930 hn         1 FMD       0.402000
     33 H282         0.4640     2.0810     3.7450 hn         1 FMD       0.402000
     34 H24          2.6250    -0.9630     3.9530 h1         1 FMD       0.084700
     35 H26          2.1840    -0.5310     6.1980 ho         1 FMD       0.432000
     36 H251         3.7850     0.8680     5.1100 hc         1 FMD       0.043033
     37 H252         3.3970     1.3630     3.4540 hc         1 FMD       0.043033
     38 H253         2.4350     1.9810     4.8130 hc         1 FMD       0.043033
     39 HN9         -3.2160     0.7580    -4.3420 hn         1 FMD       0.340500
     40 HC5         -5.4190     0.0060    -2.8850 ha         1 FMD       0.124000
     41 HC6         -6.0900    -0.8350    -0.6120 ha         1 FMD       0.135000
     42 H11          0.2570    -0.1310    -0.4330 ha         1 FMD       0.201000
     43 H221         3.9120    -0.5190     1.6370 h1         1 FMD       0.045033
     44 H222         4.7290    -0.8170     0.0870 h1         1 FMD       0.045033
     45 H223         4.5410     0.8480     0.6920 h1         1 FMD       0.045033
     46 H14          4.8660     0.8330    -1.8720 ha         1 FMD       0.142000
     47 H15          3.7790     1.5610    -4.2680 h4         1 FMD       0.152000
     48 H16          1.2250     1.1950    -4.0110 hn         1 FMD       0.405000
@<TRIPOS>BOND
     1     1     2 1   
     2     2     3 ar  
     3     2    19 ar  
     4     3     4 1   
     5     3    13 ar  
     6     4     5 3   
     7     5     6 1   
     8     6     7 1   
     9     6     8 1   
    10     6    29 1   
    11     7    30 1   
    12     8     9 1   
    13     8    10 1   
    14     8    31 1   
    15     9    32 1   
    16     9    33 1   
    17    10    11 1   
    18    10    12 1   
    19    10    34 1   
    20    11    35 1   
    21    12    36 1   
    22    12    37 1   
    23    12    38 1   
    24    13    14 ar  
    25    13    20 1   
    26    14    15 1   
    27    14    18 ar  
    28    15    16 1   
    29    15    39 1   
    30    16    17 2   
    31    16    20 1   
    32    18    19 ar  
    33    18    40 1   
    34    19    41 1   
    35    20    21 2   
    36    21    22 1   
    37    21    42 1   
    38    22    23 2   
    39    22    28 1   
    40    23    24 1   
    41    23    26 1   
    42    24    25 1   
    43    25    43 1   
    44    25    44 1   
    45    25    45 1   
    46    26    27 2   
    47    26    46 1   
    48    27    28 1   
    49    27    47 1   
    50    28    48 1   
@<TRIPOS>SUBSTRUCTURE
     1 FMD         1 TEMP              0 ****  ****    0 ROOT
