@<TRIPOS>MOLECULE
FME
   21    20     1     0     0
SMALL
No Charge or Current Charge


@<TRIPOS>ATOM
      1 N           23.5230    -5.6190     4.7670 ns         1 FME      -0.465900
      2 CN          23.3150    -6.9480     4.4630 c          1 FME       0.604900
      3 O1          22.2380    -7.5140     4.6010 o          1 FME      -0.636100
      4 CA          22.5080    -4.6820     5.3160 c3         1 FME      -0.054300
      5 CB          22.6660    -4.4940     6.8490 c3         1 FME      -0.060400
      6 CG          22.2760    -5.7230     7.6980 c3         1 FME       0.072600
      7 SD          20.4470    -6.0030     7.6760 ss         1 FME      -0.413000
      8 CE          20.3540    -7.5460     8.6870 c3         1 FME       0.026900
      9 C           22.5800    -3.3160     4.5690 c          1 FME       0.717000
     10 O           23.6340    -2.6950     4.5880 o          1 FME      -0.721500
     11 OXT         21.5980    -2.9520     3.9360 o          1 FME      -0.721500
     12 H           24.4540    -5.2590     4.5860 hn         1 FME       0.288500
     13 HCN         24.2270    -7.4390     4.0760 h5         1 FME      -0.038800
     14 HA          21.5080    -5.0880     5.1160 h1         1 FME       0.078700
     15 HB2         23.7060    -4.2270     7.0690 hc         1 FME       0.055700
     16 HB3         22.0540    -3.6430     7.1730 hc         1 FME       0.055700
     17 HG2         22.7920    -6.6190     7.3290 h1         1 FME       0.036700
     18 HG3         22.5850    -5.5550     8.7380 h1         1 FME       0.036700
     19 HE1         19.3080    -7.8650     8.7810 h1         1 FME       0.045367
     20 HE2         20.9320    -8.3440     8.2020 h1         1 FME       0.045367
     21 HE3         20.7650    -7.3600     9.6880 h1         1 FME       0.045367
@<TRIPOS>BOND
     1     1     2 1   
     2     1     4 1   
     3     1    12 1   
     4     2     3 2   
     5     2    13 1   
     6     4     5 1   
     7     4     9 1   
     8     4    14 1   
     9     5     6 1   
    10     5    15 1   
    11     5    16 1   
    12     6     7 1   
    13     6    17 1   
    14     6    18 1   
    15     7     8 1   
    16     8    19 1   
    17     8    20 1   
    18     8    21 1   
    19     9    10 1   
    20     9    11 1   
@<TRIPOS>SUBSTRUCTURE
     1 FME         1 TEMP              0 ****  ****    0 ROOT
