@<TRIPOS>MOLECULE
FME
   21    20     1     0     0
SMALL
bcc


@<TRIPOS>ATOM
      1 N           23.4370    -5.7950     5.0980 ns         1 FME      -0.532900
      2 CN          23.2700    -6.7790     4.2120 c          1 FME       0.671900
      3 O1          22.2540    -7.0120     3.5760 o          1 FME      -0.636100
      4 CA          22.4790    -4.7460     5.3560 c3         1 FME      -0.054300
      5 CB          22.4640    -4.4090     6.8470 c3         1 FME      -0.060400
      6 CG          22.1970    -5.5930     7.7630 c3         1 FME       0.024700
      7 SD          20.5690    -6.3250     7.4210 ss         1 FME      -0.317200
      8 CE          20.5480    -7.6110     8.6880 c3         1 FME      -0.021000
      9 C           22.7210    -3.4750     4.4870 c          1 FME       0.927600
     10 O           23.6030    -3.5360     3.6160 o          1 FME      -0.826800
     11 OXT         21.9740    -2.5130     4.7500 o          1 FME      -0.826800
     12 H           24.3700    -5.6710     5.4620 hn         1 FME       0.288500
     13 HCN         24.1740    -7.4020     4.1190 h5         1 FME      -0.038800
     14 HA          21.4970    -5.1370     5.0780 h1         1 FME       0.078700
     15 HB2         23.4290    -3.9790     7.1350 hc         1 FME       0.055700
     16 HB3         21.7180    -3.6330     7.0200 hc         1 FME       0.055700
     17 HG2         22.9620    -6.3620     7.6410 h1         1 FME       0.036700
     18 HG3         22.2200    -5.2650     8.8040 h1         1 FME       0.036700
     19 HE1         19.6120    -8.1600     8.5910 h1         1 FME       0.045367
     20 HE2         21.3750    -8.3070     8.5540 h1         1 FME       0.045367
     21 HE3         20.5980    -7.1820     9.6880 h1         1 FME       0.045367
@<TRIPOS>BOND
     1     1     2 1   
     2     1     4 1   
     3     1    12 1   
     4     2     3 2   
     5     2    13 1   
     6     4     5 1   
     7     4     9 1   
     8     4    14 1   
     9     5     6 1   
    10     5    15 1   
    11     5    16 1   
    12     6     7 1   
    13     6    17 1   
    14     6    18 1   
    15     7     8 1   
    16     8    19 1   
    17     8    20 1   
    18     8    21 1   
    19     9    10 1   
    20     9    11 1   
@<TRIPOS>SUBSTRUCTURE
     1 FME         1 TEMP              0 ****  ****    0 ROOT
