@<TRIPOS>MOLECULE
FMF
   22    22     1     0     0
SMALL
No Charge or Current Charge


@<TRIPOS>ATOM
      1 C5          -1.2420    -1.8290    -0.2440 c6         1 FMF       0.102300
      2 C2           1.6720    -2.2440    -0.0730 c6         1 FMF       0.093300
      3 F2           2.1540    -1.2730    -0.9890 f          1 FMF      -0.250000
      4 C3           0.9310    -1.4970     1.0740 c6         1 FMF       0.144300
      5 O3           1.7910    -0.5240     1.7030 oh         1 FMF      -0.626000
      6 C4          -0.3590    -0.8000     0.5310 c6         1 FMF       0.113300
      7 O4          -1.0890    -0.1980     1.6150 oh         1 FMF      -0.698000
      8 C6          -2.4740    -1.1680    -0.9300 c3         1 FMF       0.172600
      9 O6          -3.0420    -2.0460    -1.9140 oh         1 FMF      -0.708000
     10 O           -0.4670    -2.4740    -1.2900 os         1 FMF      -0.469000
     11 C1           0.6770    -3.2010    -0.7890 c6         1 FMF       0.411300
     12 F1           1.3230    -3.8020    -1.8860 f          1 FMF      -0.226000
     13 H5          -1.6070    -2.6000     0.4520 h1         1 FMF       0.067700
     14 H2           2.5310    -2.8070     0.3160 h1         1 FMF       0.089700
     15 H3           0.6210    -2.2500     1.8160 h1         1 FMF       0.094700
     16 HO3          2.3000    -0.0900     0.9820 ho         1 FMF       0.451000
     17 H4          -0.0530    -0.0190    -0.1820 h1         1 FMF       0.054700
     18 HO4         -0.4090     0.2220     2.1960 ho         1 FMF       0.511000
     19 H61         -2.1470    -0.2330    -1.4050 h1         1 FMF       0.051700
     20 H62         -3.2150    -0.9080    -0.1620 h1         1 FMF       0.051700
     21 HO6         -2.2630    -2.5420    -2.2670 ho         1 FMF       0.518000
     22 H1           0.3520    -4.0030    -0.1110 h2         1 FMF       0.050700
@<TRIPOS>BOND
     1     1     6 1   
     2     1     8 1   
     3     1    10 1   
     4     1    13 1   
     5     2     3 1   
     6     2     4 1   
     7     2    11 1   
     8     2    14 1   
     9     4     5 1   
    10     4     6 1   
    11     4    15 1   
    12     5    16 1   
    13     6     7 1   
    14     6    17 1   
    15     7    18 1   
    16     8     9 1   
    17     8    19 1   
    18     8    20 1   
    19     9    21 1   
    20    10    11 1   
    21    11    12 1   
    22    11    22 1   
@<TRIPOS>SUBSTRUCTURE
     1 FMF         1 TEMP              0 ****  ****    0 ROOT
