@<TRIPOS>MOLECULE
FMF
   22    22     1     0     0
SMALL
abcg2


@<TRIPOS>ATOM
      1 C5          -1.1220    -1.8100    -0.2400 c6         1 FMF       0.102300
      2 C2           1.6900    -2.3080    -0.0750 c6         1 FMF       0.093300
      3 F2           2.2070    -1.3580    -0.9520 f          1 FMF      -0.250000
      4 C3           0.9990    -1.5950     1.0790 c6         1 FMF       0.144300
      5 O3           1.8810    -0.7710     1.7870 oh         1 FMF      -0.626000
      6 C4          -0.2500    -0.8570     0.5900 c6         1 FMF       0.113300
      7 O4          -0.9520    -0.4030     1.7180 oh         1 FMF      -0.698000
      8 C6          -2.3010    -1.1050    -0.8850 c3         1 FMF       0.172600
      9 O6          -3.1600    -1.9860    -1.5640 oh         1 FMF      -0.708000
     10 O           -0.3610    -2.3890    -1.2930 os         1 FMF      -0.469000
     11 C1           0.6850    -3.1580    -0.8240 c6         1 FMF       0.411300
     12 F1           1.2700    -3.7190    -1.9250 f          1 FMF      -0.226000
     13 H5          -1.5000    -2.6060     0.4210 h1         1 FMF       0.067700
     14 H2           2.5210    -2.9180     0.2900 h1         1 FMF       0.089700
     15 H3           0.6770    -2.3710     1.7840 h1         1 FMF       0.094700
     16 HO3          2.1980    -0.0730     1.2020 ho         1 FMF       0.451000
     17 H4           0.0590    -0.0180    -0.0500 h1         1 FMF       0.054700
     18 HO4         -1.3870     0.4270     1.5050 ho         1 FMF       0.511000
     19 H61         -1.9260    -0.3080    -1.5420 h1         1 FMF       0.051700
     20 H62         -2.8920    -0.6260    -0.1030 h1         1 FMF       0.051700
     21 HO6         -2.6810    -2.3650    -2.3070 ho         1 FMF       0.518000
     22 H1           0.3310    -3.9710    -0.1740 h2         1 FMF       0.050700
@<TRIPOS>BOND
     1     1     6 1   
     2     1     8 1   
     3     1    10 1   
     4     1    13 1   
     5     2     3 1   
     6     2     4 1   
     7     2    11 1   
     8     2    14 1   
     9     4     5 1   
    10     4     6 1   
    11     4    15 1   
    12     5    16 1   
    13     6     7 1   
    14     6    17 1   
    15     7    18 1   
    16     8     9 1   
    17     8    19 1   
    18     8    20 1   
    19     9    21 1   
    20    10    11 1   
    21    11    12 1   
    22    11    22 1   
@<TRIPOS>SUBSTRUCTURE
     1 FMF         1 TEMP              0 ****  ****    0 ROOT
