@<TRIPOS>MOLECULE
FMH
   26    27     1     0     0
SMALL
No Charge or Current Charge


@<TRIPOS>ATOM
      1 C8           2.3710     0.9930    -0.0030 ca         1 FMH      -0.016500
      2 C5           1.2660    -1.5860    -0.0910 ca         1 FMH      -0.100000
      3 C6           2.6590    -1.4220     0.0110 ca         1 FMH      -0.016500
      4 N1           5.2490     0.1240     1.7950 n8         1 FMH      -1.008100
      5 C2          -2.9960    -1.7370    -0.3980 cc         1 FMH       0.305900
      6 C4           0.4020    -0.4660    -0.1520 ca         1 FMH      -0.089500
      7 O1           5.4000     1.4150    -0.2580 o          1 FMH      -0.542000
      8 O            5.7020    -1.1260    -0.2400 o          1 FMH      -0.542000
      9 C7           3.2180    -0.1310     0.0530 ca         1 FMH      -0.254500
     10 C9           0.9790     0.8260    -0.1050 ca         1 FMH      -0.100000
     11 C3          -1.0680    -0.6480    -0.2590 cd         1 FMH       0.589900
     12 SE          -2.1870     0.7180    -0.3440 ss         1 FMH      -0.193400
     13 N           -1.6320    -1.8520    -0.2990 nc         1 FMH      -0.645000
     14 C1          -3.4870    -0.4560    -0.4370 cd         1 FMH      -0.155300
     15 C           -4.9280    -0.0310    -0.5390 c3         1 FMH       0.198900
     16 Cl          -5.6980    -0.0900     1.1070 cl         1 FMH      -0.270000
     17 H1           2.7860     2.0000     0.0330 ha         1 FMH       0.141000
     18 H2           0.8630    -2.5960    -0.1220 ha         1 FMH       0.134000
     19 H3           3.2970    -2.3030     0.0580 ha         1 FMH       0.141000
     20 H4           5.9710    -0.5870     1.8850 hn         1 FMH       0.476000
     21 H5           5.7860     0.9840     1.8740 hn         1 FMH       0.476000
     22 H6          -3.5840    -2.6440    -0.4380 h4         1 FMH       0.044100
     23 H7           0.3570     1.7180    -0.1470 ha         1 FMH       0.134000
     24 H8          -5.0060     0.9960    -0.9150 h1         1 FMH       0.080200
     25 H9          -5.4860    -0.7050    -1.2010 h1         1 FMH       0.080200
     26 S            4.9980     0.0820     0.1840 sy         1 FMH       1.128600
@<TRIPOS>BOND
     1     1     9 ar  
     2     1    10 ar  
     3     1    17 1   
     4     2     3 ar  
     5     2     6 ar  
     6     2    18 1   
     7     3     9 ar  
     8     3    19 1   
     9     4    20 1   
    10     4    21 1   
    11     4    26 1   
    12     5    13 1   
    13     5    14 2   
    14     5    22 1   
    15     6    10 ar  
    16     6    11 1   
    17     7    26 2   
    18     8    26 2   
    19     9    26 1   
    20    10    23 1   
    21    11    12 1   
    22    11    13 2   
    23    12    14 1   
    24    14    15 1   
    25    15    16 1   
    26    15    24 1   
    27    15    25 1   
@<TRIPOS>SUBSTRUCTURE
     1 FMH         1 TEMP              0 ****  ****    0 ROOT
