@<TRIPOS>MOLECULE
FMH
   26    27     1     0     0
SMALL
abcg2


@<TRIPOS>ATOM
      1 C8           2.4160     1.0150     0.1270 ca         1 FMH      -0.016500
      2 C5           1.3060    -1.5060    -0.2420 ca         1 FMH      -0.100000
      3 C6           2.6800    -1.3690    -0.1620 ca         1 FMH      -0.016500
      4 N1           5.1950     0.2050     1.7600 n8         1 FMH      -1.008100
      5 C2          -2.8900    -1.7030    -0.3350 cc         1 FMH       0.305900
      6 C4           0.4720    -0.3910    -0.1440 ca         1 FMH      -0.089500
      7 O1           5.3510     1.3900    -0.4120 o          1 FMH      -0.542000
      8 O            5.5950    -1.1000    -0.4430 o          1 FMH      -0.542000
      9 C7           3.2250    -0.1080     0.0260 ca         1 FMH      -0.254500
     10 C9           1.0440     0.8690     0.0410 ca         1 FMH      -0.100000
     11 C3          -0.9770    -0.5780    -0.2380 cd         1 FMH       0.589900
     12 SE          -2.1930     0.8400    -0.3800 ss         1 FMH      -0.193400
     13 N           -1.5360    -1.7450    -0.2390 nc         1 FMH      -0.645000
     14 C1          -3.4870    -0.4840    -0.4250 cd         1 FMH      -0.155300
     15 C           -4.9350    -0.2150    -0.5480 c3         1 FMH       0.198900
     16 CL          -5.5710     0.6110     0.9300 cl         1 FMH      -0.270000
     17 H1           2.8390     2.0000     0.2740 ha         1 FMH       0.141000
     18 H2           0.8760    -2.4870    -0.3910 ha         1 FMH       0.134000
     19 H3           3.3100    -2.2430    -0.2500 ha         1 FMH       0.141000
     20 H4           5.1270    -0.6890     2.2350 hn         1 FMH       0.476000
     21 H5           6.0730     0.6620     1.9920 hn         1 FMH       0.476000
     22 H6          -3.4440    -2.6330    -0.3380 h4         1 FMH       0.044100
     23 H7           0.4320     1.7580     0.1310 ha         1 FMH       0.134000
     24 H8          -5.1730     0.4350    -1.3870 h1         1 FMH       0.080200
     25 H9          -5.4830    -1.1490    -0.6580 h1         1 FMH       0.080200
     26 S            4.9820     0.0900     0.1290 sy         1 FMH       1.128600
@<TRIPOS>BOND
     1     1     9 ar  
     2     1    10 ar  
     3     1    17 1   
     4     2     3 ar  
     5     2     6 ar  
     6     2    18 1   
     7     3     9 ar  
     8     3    19 1   
     9     4    20 1   
    10     4    21 1   
    11     4    26 1   
    12     5    13 1   
    13     5    14 2   
    14     5    22 1   
    15     6    10 ar  
    16     6    11 1   
    17     7    26 2   
    18     8    26 2   
    19     9    26 1   
    20    10    23 1   
    21    11    12 1   
    22    11    13 2   
    23    12    14 1   
    24    14    15 1   
    25    15    16 1   
    26    15    24 1   
    27    15    25 1   
@<TRIPOS>SUBSTRUCTURE
     1 FMH         1 TEMP              0 ****  ****    0 ROOT
