@<TRIPOS>MOLECULE
FMJ
   31    33     1     0     0
SMALL
abcg2


@<TRIPOS>ATOM
      1 C1           0.8810    -1.2630    -0.0300 cc         1 FMJ       0.369500
      2 C2          -0.5460    -1.2390    -0.0600 cc         1 FMJ      -0.288500
      3 C3           1.8450    -0.1600    -0.1270 ca         1 FMJ      -0.131500
      4 C5          -1.4400    -0.0830    -0.1030 ca         1 FMJ       0.257500
      5 C6          -0.8910    -2.5530     0.0470 cd         1 FMJ       0.214300
      6 C14          3.9220     0.8540     0.5610 ca         1 FMJ      -0.118500
      7 C16         -3.4030     1.0430    -0.7530 ca         1 FMJ       0.152900
      8 C15         -1.8580     2.0540     0.5450 ca         1 FMJ       0.384900
      9 N10         -1.0550     0.9890     0.5760 nb         1 FMJ      -0.244000
     10 N18         -3.0370     2.1250    -0.0890 nb         1 FMJ      -0.248000
     11 C11         -2.6370    -0.1100    -0.8130 ca         1 FMJ      -0.287000
     12 C12         -2.1880    -3.2620     0.1120 c3         1 FMJ      -0.142400
     13 O9           0.2170    -3.2850     0.1340 os         1 FMJ      -0.066700
     14 N4           1.3170    -2.4860     0.0740 nd         1 FMJ      -0.363300
     15 C8           2.9880    -0.1650     0.6700 ca         1 FMJ      -0.071500
     16 C17          3.7270     1.8840    -0.3500 ca         1 FMJ      -0.098000
     17 C13          2.5920     1.8900    -1.1510 ca         1 FMJ      -0.118500
     18 C7           1.6540     0.8750    -1.0400 ca         1 FMJ      -0.071500
     19 H14          4.8030     0.8440     1.1890 ha         1 FMJ       0.114000
     20 H16         -4.3530     1.0940    -1.2740 h4         1 FMJ       0.020100
     21 HN19        -0.6330     3.1000     1.7880 hn         1 FMJ       0.500500
     22 HN1A        -2.0800     3.9180     1.3390 hn         1 FMJ       0.500500
     23 H11         -2.9520    -0.9610    -1.3970 ha         1 FMJ       0.133000
     24 H12         -2.5600    -3.4880    -0.8890 hc         1 FMJ       0.066700
     25 H12A        -2.0940    -4.2010     0.6550 hc         1 FMJ       0.066700
     26 H12B        -2.9350    -2.6470     0.6120 hc         1 FMJ       0.066700
     27 H8           3.1400    -0.9610     1.3880 ha         1 FMJ       0.120500
     28 H17          4.4560     2.6780    -0.4360 ha         1 FMJ       0.112000
     29 H13          2.4370     2.6860    -1.8670 ha         1 FMJ       0.114000
     30 H7           0.7790     0.8840    -1.6760 ha         1 FMJ       0.120500
     31 N19         -1.4410     3.1560     1.1930 nv         1 FMJ      -1.066900
@<TRIPOS>BOND
     1     1     2 1   
     2     1     3 1   
     3     1    14 2   
     4     2     4 1   
     5     2     5 2   
     6     3    15 ar  
     7     3    18 ar  
     8     4     9 ar  
     9     4    11 ar  
    10     5    12 1   
    11     5    13 1   
    12     6    15 ar  
    13     6    16 ar  
    14     6    19 1   
    15     7    10 ar  
    16     7    11 ar  
    17     7    20 1   
    18     8     9 ar  
    19     8    10 ar  
    20     8    31 1   
    21    11    23 1   
    22    12    24 1   
    23    12    25 1   
    24    12    26 1   
    25    13    14 1   
    26    15    27 1   
    27    16    17 ar  
    28    16    28 1   
    29    17    18 ar  
    30    17    29 1   
    31    18    30 1   
    32    21    31 1   
    33    22    31 1   
@<TRIPOS>SUBSTRUCTURE
     1 FMJ         1 TEMP              0 ****  ****    0 ROOT
