@<TRIPOS>MOLECULE
FMJ
   31    33     1     0     0
SMALL
No Charge or Current Charge


@<TRIPOS>ATOM
      1 C1           0.9560    -1.2700     0.1280 cc         1 FMJ       0.369500
      2 C2          -0.4460    -1.1990    -0.0760 cc         1 FMJ      -0.288500
      3 C3           1.9390    -0.1800    -0.0540 ca         1 FMJ      -0.131500
      4 C5          -1.3570    -0.0680    -0.2020 ca         1 FMJ       0.257500
      5 C6          -0.9030    -2.4590     0.1520 cd         1 FMJ       0.214300
      6 C14          4.2150     0.6870     0.2620 ca         1 FMJ      -0.118500
      7 C16         -3.3540     0.9790    -1.0550 ca         1 FMJ       0.152900
      8 C15         -2.0670     1.9800     0.5350 ca         1 FMJ       0.384900
      9 N10         -1.1700     0.9870     0.6190 nb         1 FMJ      -0.244000
     10 N18         -3.1480     2.0410    -0.2550 nb         1 FMJ      -0.248000
     11 C11         -2.4770    -0.1180    -1.0530 ca         1 FMJ      -0.287000
     12 C12         -2.2960    -3.0230     0.2480 c3         1 FMJ      -0.142400
     13 O9           0.1500    -3.2850     0.4260 os         1 FMJ      -0.066700
     14 N4           1.3550    -2.5040     0.4110 nd         1 FMJ      -0.363300
     15 C8           3.2530    -0.3200     0.4540 ca         1 FMJ      -0.071500
     16 C17          3.8900     1.8430    -0.4630 ca         1 FMJ      -0.098000
     17 C13          2.6050     1.9810    -1.0080 ca         1 FMJ      -0.118500
     18 C7           1.6420     0.9760    -0.8150 ca         1 FMJ      -0.071500
     19 H14          5.2140     0.5690     0.6750 ha         1 FMJ       0.114000
     20 H16         -4.2310     1.0070    -1.7010 h4         1 FMJ       0.020100
     21 HN19        -1.1970     2.9460     2.1160 hn         1 FMJ       0.500500
     22 HN1A        -2.6240     3.7050     1.4920 hn         1 FMJ       0.500500
     23 H11         -2.6550    -0.9670    -1.7050 ha         1 FMJ       0.133000
     24 H12         -2.7030    -3.2320    -0.7470 hc         1 FMJ       0.066700
     25 H12A        -2.3030    -3.9610     0.8150 hc         1 FMJ       0.066700
     26 H12B        -2.9720    -2.3250     0.7560 hc         1 FMJ       0.066700
     27 H8           3.5350    -1.2050     1.0210 ha         1 FMJ       0.120500
     28 H17          4.6350     2.6210    -0.6150 ha         1 FMJ       0.112000
     29 H13          2.3570     2.8640    -1.5930 ha         1 FMJ       0.114000
     30 H7           0.6760     1.0970    -1.2950 ha         1 FMJ       0.120500
     31 N19         -1.8650     3.0420     1.3540 nv         1 FMJ      -1.066900
@<TRIPOS>BOND
     1     1     2 1   
     2     1     3 1   
     3     1    14 2   
     4     2     4 1   
     5     2     5 2   
     6     3    15 ar  
     7     3    18 ar  
     8     4     9 ar  
     9     4    11 ar  
    10     5    12 1   
    11     5    13 1   
    12     6    15 ar  
    13     6    16 ar  
    14     6    19 1   
    15     7    10 ar  
    16     7    11 ar  
    17     7    20 1   
    18     8     9 ar  
    19     8    10 ar  
    20     8    31 1   
    21    11    23 1   
    22    12    24 1   
    23    12    25 1   
    24    12    26 1   
    25    13    14 1   
    26    15    27 1   
    27    16    17 ar  
    28    16    28 1   
    29    17    18 ar  
    30    17    29 1   
    31    18    30 1   
    32    21    31 1   
    33    22    31 1   
@<TRIPOS>SUBSTRUCTURE
     1 FMJ         1 TEMP              0 ****  ****    0 ROOT
