@<TRIPOS>MOLECULE
FMK
   46    49     1     0     0
SMALL
abcg2


@<TRIPOS>ATOM
      1 C21         -5.4650    -0.0310     0.2790 ca         1 FMK       0.197000
      2 C20         -6.3380     1.0000     0.0070 ca         1 FMK      -0.177000
      3 C24         -0.1160    -0.9760    -2.7720 c3         1 FMK       0.080300
      4 C18         -4.4930     2.5500     0.1880 ca         1 FMK      -0.143000
      5 C6           1.4030    -1.0710     1.7680 ca         1 FMK       0.208900
      6 C2           5.2490    -1.3820     0.2690 c3         1 FMK       0.226500
      7 C3           6.0500    -0.1010     0.0180 c3         1 FMK       0.064600
      8 C4           2.7880    -1.2190    -0.0070 ca         1 FMK       0.431900
      9 C11         -1.7820    -0.9030    -0.9750 c          1 FMK       0.557200
     10 C12         -2.0420    -0.8760     0.4630 cc         1 FMK      -0.043100
     11 C13         -1.0560    -0.9020     1.3760 cd         1 FMK      -0.058200
     12 C16         -4.1150     0.1940     0.5200 ca         1 FMK       0.071100
     13 C17         -3.6380     1.4930     0.4730 ca         1 FMK      -0.115000
     14 C8           0.2900    -0.9930     0.9330 ca         1 FMK      -0.292800
     15 C9           0.5750    -1.0260    -0.4440 ca         1 FMK       0.308900
     16 C19         -5.8270     2.2840    -0.0360 ca         1 FMK       0.178000
     17 F23         -6.6630     3.2950    -0.3140 f          1 FMK      -0.173000
     18 F22         -5.9230    -1.2850     0.3190 f          1 FMK      -0.156000
     19 O15         -3.3520    -0.8900     0.8370 os         1 FMK      -0.209200
     20 O14         -2.6840    -0.8810    -1.7920 o          1 FMK      -0.511000
     21 N10         -0.4470    -0.9530    -1.3520 n          1 FMK      -0.360300
     22 N5           1.8060    -1.1320    -0.9060 nb         1 FMK      -0.302000
     23 N7           2.6330    -1.1850     1.3270 nb         1 FMK      -0.258000
     24 C30          6.0960    -2.6010    -0.0630 c3         1 FMK      -0.107100
     25 N25          5.2500     1.0730     0.2900 na         1 FMK       0.242600
     26 N29          4.9560     1.4740     1.5020 nc         1 FMK      -0.518800
     27 C28          4.1630     2.4970     1.2640 cd         1 FMK       0.481900
     28 N27          3.9890     2.6950    -0.0490 nd         1 FMK      -0.380000
     29 N26          4.6840     1.7800    -0.6450 nc         1 FMK      -0.182800
     30 H20         -7.3860     0.8020    -0.1740 ha         1 FMK       0.151000
     31 H24         -1.0130    -0.7850    -3.3480 h1         1 FMK       0.061367
     32 H24A         0.6230    -0.2100    -2.9910 h1         1 FMK       0.061367
     33 H24B         0.2920    -1.9460    -3.0510 h1         1 FMK       0.061367
     34 H18         -4.1200     3.5650     0.1600 ha         1 FMK       0.137000
     35 H6           1.2660    -1.0400     2.8440 h4         1 FMK       0.028100
     36 H2           4.9750    -1.4130     1.3230 h1         1 FMK       0.110700
     37 H3           6.9310    -0.0690     0.6570 h1         1 FMK       0.084700
     38 H3A          6.3740    -0.0370    -1.0190 h1         1 FMK       0.084700
     39 H13         -1.2760    -0.8770     2.4360 ha         1 FMK       0.205000
     40 H17         -2.5920     1.6950     0.6660 ha         1 FMK       0.128000
     41 HN1          4.1070    -1.3410    -1.5070 hn         1 FMK       0.511000
     42 H30          5.5540    -3.5120     0.1840 hc         1 FMK       0.051367
     43 H30A         6.3530    -2.6350    -1.1230 hc         1 FMK       0.051367
     44 H30B         7.0230    -2.5930     0.5100 hc         1 FMK       0.051367
     45 H28          3.7160     3.1000     2.0360 h5         1 FMK       0.077100
     46 N1           4.0290    -1.3660    -0.5010 nu         1 FMK      -0.918100
@<TRIPOS>BOND
     1     1     2 ar  
     2     1    12 ar  
     3     1    18 1   
     4     2    16 ar  
     5     2    30 1   
     6     3    21 1   
     7     3    31 1   
     8     3    32 1   
     9     3    33 1   
    10     4    13 ar  
    11     4    16 ar  
    12     4    34 1   
    13     5    14 ar  
    14     5    23 ar  
    15     5    35 1   
    16     6     7 1   
    17     6    24 1   
    18     6    36 1   
    19     6    46 1   
    20     7    25 1   
    21     7    37 1   
    22     7    38 1   
    23     8    22 ar  
    24     8    23 ar  
    25     8    46 1   
    26     9    10 1   
    27     9    20 2   
    28     9    21 1   
    29    10    11 2   
    30    10    19 1   
    31    11    14 1   
    32    11    39 1   
    33    12    13 ar  
    34    12    19 1   
    35    13    40 1   
    36    14    15 ar  
    37    15    21 1   
    38    15    22 ar  
    39    16    17 1   
    40    24    42 1   
    41    24    43 1   
    42    24    44 1   
    43    25    26 1   
    44    25    29 1   
    45    26    27 2   
    46    27    28 1   
    47    27    45 1   
    48    28    29 2   
    49    41    46 1   
@<TRIPOS>SUBSTRUCTURE
     1 FMK         1 TEMP              0 ****  ****    0 ROOT
