@<TRIPOS>MOLECULE
FMK
   46    49     1     0     0
SMALL
No Charge or Current Charge


@<TRIPOS>ATOM
      1 C21         -5.4100     0.3330     0.5540 ca         1 FMK       0.197000
      2 C20         -6.1030     1.4470     0.0550 ca         1 FMK      -0.177000
      3 C24         -0.3240    -1.6260    -2.8140 c3         1 FMK       0.080300
      4 C18         -3.9850     2.5720    -0.3580 ca         1 FMK      -0.143000
      5 C6           1.3860    -1.0390     1.7650 ca         1 FMK       0.208900
      6 C2           5.3120    -1.2420     0.0750 c3         1 FMK       0.226500
      7 C3           5.7010     0.2520    -0.0670 c3         1 FMK       0.064600
      8 C4           2.7450    -1.3860    -0.0380 ca         1 FMK       0.431900
      9 C11         -1.9560    -1.2530    -0.9450 c          1 FMK       0.557200
     10 C12         -2.1390    -1.0170     0.5210 cc         1 FMK      -0.043100
     11 C13         -1.0950    -0.9420     1.4110 cd         1 FMK      -0.058200
     12 C16         -3.9980     0.3140     0.5880 ca         1 FMK       0.071100
     13 C17         -3.2850     1.4580     0.1420 ca         1 FMK      -0.115000
     14 C8           0.2680    -1.1000     0.9170 ca         1 FMK      -0.292800
     15 C9           0.4950    -1.3200    -0.4500 ca         1 FMK       0.308900
     16 C19         -5.3870     2.5610    -0.4030 ca         1 FMK       0.178000
     17 F23         -6.0520     3.6340    -0.8820 f          1 FMK      -0.173000
     18 F22         -6.1140    -0.7340     0.9970 f          1 FMK      -0.156000
     19 O15         -3.3660    -0.8090     1.1120 os         1 FMK      -0.209200
     20 O14         -2.8970    -1.3290    -1.7270 o          1 FMK      -0.511000
     21 N10         -0.6090    -1.3930    -1.3710 n          1 FMK      -0.360300
     22 N5           1.7470    -1.4660    -0.9290 nb         1 FMK      -0.302000
     23 N7           2.6340    -1.1860     1.2870 nb         1 FMK      -0.258000
     24 C30          6.3770    -2.1650    -0.5480 c3         1 FMK      -0.107100
     25 N25          4.8400     1.1740     0.6900 na         1 FMK       0.242600
     26 N29          4.9540     1.3540     2.0300 nc         1 FMK      -0.518800
     27 C28          4.0090     2.2530     2.2450 cd         1 FMK       0.481900
     28 N27          3.3560     2.6170     1.0830 nd         1 FMK      -0.380000
     29 N26          3.8840     1.9420     0.1040 nc         1 FMK      -0.182800
     30 H20         -7.1880     1.4460     0.0260 ha         1 FMK       0.151000
     31 H24         -1.2360    -1.6230    -3.4230 h1         1 FMK       0.061367
     32 H24A         0.3400    -0.8380    -3.1920 h1         1 FMK       0.061367
     33 H24B         0.1710    -2.5980    -2.9390 h1         1 FMK       0.061367
     34 H18         -3.4410     3.4480    -0.7040 ha         1 FMK       0.137000
     35 H6           1.2850    -0.8730     2.8360 h4         1 FMK       0.028100
     36 H2           5.2680    -1.4860     1.1480 h1         1 FMK       0.110700
     37 H3           6.7280     0.3890     0.2920 h1         1 FMK       0.084700
     38 H3A          5.6810     0.5370    -1.1260 h1         1 FMK       0.084700
     39 H13         -1.2910    -0.7580     2.4650 ha         1 FMK       0.205000
     40 H17         -2.1990     1.5010     0.1890 ha         1 FMK       0.128000
     41 HN1          4.0230    -1.7250    -1.5770 hn         1 FMK       0.511000
     42 H30          6.0990    -3.2180    -0.4180 hc         1 FMK       0.051367
     43 H30A         6.4940    -1.9670    -1.6200 hc         1 FMK       0.051367
     44 H30B         7.3490    -2.0120    -0.0630 hc         1 FMK       0.051367
     45 H28          3.7600     2.6750     3.2120 h5         1 FMK       0.077100
     46 N1           4.0150    -1.5340    -0.5740 nu         1 FMK      -0.918100
@<TRIPOS>BOND
     1     1     2 ar  
     2     1    12 ar  
     3     1    18 1   
     4     2    16 ar  
     5     2    30 1   
     6     3    21 1   
     7     3    31 1   
     8     3    32 1   
     9     3    33 1   
    10     4    13 ar  
    11     4    16 ar  
    12     4    34 1   
    13     5    14 ar  
    14     5    23 ar  
    15     5    35 1   
    16     6     7 1   
    17     6    24 1   
    18     6    36 1   
    19     6    46 1   
    20     7    25 1   
    21     7    37 1   
    22     7    38 1   
    23     8    22 ar  
    24     8    23 ar  
    25     8    46 1   
    26     9    10 1   
    27     9    20 2   
    28     9    21 1   
    29    10    11 2   
    30    10    19 1   
    31    11    14 1   
    32    11    39 1   
    33    12    13 ar  
    34    12    19 1   
    35    13    40 1   
    36    14    15 ar  
    37    15    21 1   
    38    15    22 ar  
    39    16    17 1   
    40    24    42 1   
    41    24    43 1   
    42    24    44 1   
    43    25    26 1   
    44    25    29 1   
    45    26    27 2   
    46    27    28 1   
    47    27    45 1   
    48    28    29 2   
    49    41    46 1   
@<TRIPOS>SUBSTRUCTURE
     1 FMK         1 TEMP              0 ****  ****    0 ROOT
