@<TRIPOS>MOLECULE
FML
   41    43     1     0     0
SMALL
No Charge or Current Charge


@<TRIPOS>ATOM
      1 C1          -0.2160    -0.2110     0.3860 ca         1 FML       0.237900
      2 N2          -1.4890    -0.2800    -0.0550 nb         1 FML      -0.271000
      3 C3          -1.8750     0.6170    -1.0060 ca         1 FML       0.385300
      4 C5           0.6320     0.7570    -0.1480 ca         1 FML      -0.396900
      5 C6           0.1850     1.6140    -1.1030 ca         1 FML       0.193500
      6 C9           1.9940     1.0820     0.0880 cc         1 FML       0.630800
      7 C11         -4.2020    -0.0060    -0.7620 ca         1 FML       0.058100
      8 C13          4.1870     0.7440     1.2860 c3         1 FML       0.254500
      9 C14          5.0040    -0.5510     1.2030 c3         1 FML      -0.311400
     10 C15          4.2580     1.3630     2.6930 c3         1 FML      -0.118100
     11 C22         -6.3340    -1.1700     0.6530 ca         1 FML       0.202000
     12 C21         -5.9880    -1.6570    -0.6170 ca         1 FML      -0.162000
     13 C20         -4.9230    -1.0730    -1.3280 ca         1 FML      -0.053000
     14 C23         -5.6300    -0.0980     1.2200 ca         1 FML      -0.194000
     15 C24         -4.5670     0.4860     0.5140 ca         1 FML       0.207000
     16 F25         -3.9080     1.5330     1.0630 f          1 FML      -0.159000
     17 O10         -3.1670     0.5550    -1.4820 os         1 FML      -0.326400
     18 N4          -1.0770     1.5660    -1.5590 nb         1 FML      -0.211000
     19 N7           1.2680     2.4160    -1.4080 na         1 FML      -0.159100
     20 N8           2.4170     2.0940    -0.6650 nd         1 FML      -0.584100
     21 N12          2.7900     0.4480     0.9870 nu         1 FML      -0.872400
     22 S16          5.3430    -1.0640    -0.4900 s6         1 FML       1.093000
     23 O17          4.1120    -1.6030    -1.0810 o          1 FML      -0.509000
     24 O18          6.0560     0.0270    -1.1660 o          1 FML      -0.509000
     25 C19          6.4930    -2.4270    -0.3110 c3         1 FML      -0.341100
     26 H1           0.1020    -0.9230     1.1470 h4         1 FML       0.032100
     27 H13          4.6020     1.4810     0.5790 h1         1 FML       0.102700
     28 H14          5.9880    -0.3980     1.6580 h1         1 FML       0.097700
     29 H14A         4.5000    -1.3830     1.7060 h1         1 FML       0.097700
     30 H15          5.2940     1.6160     2.9480 hc         1 FML       0.047033
     31 H15A         3.6640     2.2830     2.7390 hc         1 FML       0.047033
     32 H15B         3.8780     0.6660     3.4500 hc         1 FML       0.047033
     33 H21         -6.5440    -2.4860    -1.0490 ha         1 FML       0.141000
     34 H20         -4.6520    -1.4480    -2.3130 ha         1 FML       0.138000
     35 H23         -5.9070     0.2800     2.1990 ha         1 FML       0.152000
     36 HN7          1.2630     3.1700    -2.0950 hn         1 FML       0.392000
     37 HN12         2.3150    -0.2590     1.5380 hn         1 FML       0.483000
     38 H19          5.9960    -3.2070     0.2760 h1         1 FML       0.103033
     39 H19A         6.7390    -2.7850    -1.3160 h1         1 FML       0.103033
     40 H19B         7.3820    -2.0480     0.2040 h1         1 FML       0.103033
     41 F26         -7.3570    -1.7320     1.3320 f          1 FML      -0.170000
@<TRIPOS>BOND
     1     1     2 ar  
     2     1     4 ar  
     3     1    26 1   
     4     2     3 ar  
     5     3    17 1   
     6     3    18 ar  
     7     4     5 ar  
     8     4     6 1   
     9     5    18 ar  
    10     5    19 1   
    11     6    20 2   
    12     6    21 1   
    13     7    13 ar  
    14     7    15 ar  
    15     7    17 1   
    16     8     9 1   
    17     8    10 1   
    18     8    21 1   
    19     8    27 1   
    20     9    22 1   
    21     9    28 1   
    22     9    29 1   
    23    10    30 1   
    24    10    31 1   
    25    10    32 1   
    26    11    12 ar  
    27    11    14 ar  
    28    11    41 1   
    29    12    13 ar  
    30    12    33 1   
    31    13    34 1   
    32    14    15 ar  
    33    14    35 1   
    34    15    16 1   
    35    19    20 1   
    36    19    36 1   
    37    21    37 1   
    38    22    23 2   
    39    22    24 2   
    40    22    25 1   
    41    25    38 1   
    42    25    39 1   
    43    25    40 1   
@<TRIPOS>SUBSTRUCTURE
     1 FML         1 TEMP              0 ****  ****    0 ROOT
