@<TRIPOS>MOLECULE
FML
   41    43     1     0     0
SMALL
abcg2


@<TRIPOS>ATOM
      1 C1          -0.3780    -0.1540     0.3760 ca         1 FML       0.237900
      2 N2          -1.6530    -0.0110     0.0480 nb         1 FML      -0.271000
      3 C3          -1.9880     1.0780    -0.6380 ca         1 FML       0.385300
      4 C5           0.5510     0.7980     0.0070 ca         1 FML      -0.396900
      5 C6           0.0530     1.8920    -0.7270 ca         1 FML       0.193500
      6 C9           1.9580     1.0570     0.1180 cc         1 FML       0.630800
      7 C11         -4.1920     0.2920    -0.5680 ca         1 FML       0.058100
      8 C13          4.2340     0.7000     0.9300 c3         1 FML       0.254500
      9 C14          5.1310    -0.5050     1.1820 c3         1 FML      -0.311400
     10 C15          4.3570     1.6890     2.0860 c3         1 FML      -0.118100
     11 C22         -6.1220    -1.4940     0.2340 ca         1 FML       0.202000
     12 C21         -5.7200    -1.4930    -1.0870 ca         1 FML      -0.162000
     13 C20         -4.7410    -0.5900    -1.4800 ca         1 FML      -0.053000
     14 C23         -5.5930    -0.6270     1.1730 ca         1 FML      -0.194000
     15 C24         -4.6280     0.2610     0.7480 ca         1 FML       0.207000
     16 F25         -4.0920     1.1170     1.6210 f          1 FML      -0.159000
     17 O10         -3.2820     1.2300    -0.9770 os         1 FML      -0.326400
     18 N4          -1.2240     2.0580    -1.0600 nb         1 FML      -0.211000
     19 N7           1.0940     2.6750    -0.9970 na         1 FML      -0.159100
     20 N8           2.2570     2.1810    -0.4790 nd         1 FML      -0.584100
     21 N12          2.8770     0.2450     0.7050 nu         1 FML      -0.872400
     22 S16          5.0450    -1.7000    -0.1620 s6         1 FML       1.093000
     23 O17          3.8870    -2.5740     0.0240 o          1 FML      -0.509000
     24 O18          5.1710    -0.9770    -1.4290 o          1 FML      -0.509000
     25 C19          6.5130    -2.6790     0.0730 c3         1 FML      -0.341100
     26 H1          -0.1140    -1.0450     0.9370 h4         1 FML       0.032100
     27 H13          4.5690     1.1880     0.0130 h1         1 FML       0.102700
     28 H14          6.1700    -0.1820     1.2600 h1         1 FML       0.097700
     29 H14A         4.8670    -1.0330     2.1000 h1         1 FML       0.097700
     30 H15          5.3860     2.0300     2.1990 hc         1 FML       0.047033
     31 H15A         3.7330     2.5630     1.9020 hc         1 FML       0.047033
     32 H15B         4.0430     1.2320     3.0260 hc         1 FML       0.047033
     33 H21         -6.1530    -2.1830    -1.7970 ha         1 FML       0.141000
     34 H20         -4.4070    -0.5670    -2.5090 ha         1 FML       0.138000
     35 H23         -5.9210    -0.6410     2.2040 ha         1 FML       0.152000
     36 HN7          1.1020     3.5470    -1.5000 hn         1 FML       0.392000
     37 HN12         2.5060    -0.3860     1.3980 hn         1 FML       0.483000
     38 H19          6.4790    -3.1520     1.0520 h1         1 FML       0.103033
     39 H19A         6.5180    -3.4390    -0.7060 h1         1 FML       0.103033
     40 H19B         7.3940    -2.0480    -0.0140 h1         1 FML       0.103033
     41 F26         -7.0600    -2.3630     0.6300 f          1 FML      -0.170000
@<TRIPOS>BOND
     1     1     2 ar  
     2     1     4 ar  
     3     1    26 1   
     4     2     3 ar  
     5     3    17 1   
     6     3    18 ar  
     7     4     5 ar  
     8     4     6 1   
     9     5    18 ar  
    10     5    19 1   
    11     6    20 2   
    12     6    21 1   
    13     7    13 ar  
    14     7    15 ar  
    15     7    17 1   
    16     8     9 1   
    17     8    10 1   
    18     8    21 1   
    19     8    27 1   
    20     9    22 1   
    21     9    28 1   
    22     9    29 1   
    23    10    30 1   
    24    10    31 1   
    25    10    32 1   
    26    11    12 ar  
    27    11    14 ar  
    28    11    41 1   
    29    12    13 ar  
    30    12    33 1   
    31    13    34 1   
    32    14    15 ar  
    33    14    35 1   
    34    15    16 1   
    35    19    20 1   
    36    19    36 1   
    37    21    37 1   
    38    22    23 2   
    39    22    24 2   
    40    22    25 1   
    41    25    38 1   
    42    25    39 1   
    43    25    40 1   
@<TRIPOS>SUBSTRUCTURE
     1 FML         1 TEMP              0 ****  ****    0 ROOT
