@<TRIPOS>MOLECULE
FMM
   66    70     1     0     0
SMALL
abcg2


@<TRIPOS>ATOM
      1 C1           4.6490     1.8560    -7.6750 c3         1 FMM      -0.334100
      2 S2           4.1230     0.2750    -7.0560 s6         1 FMM       1.080000
      3 O3           4.2110    -0.7070    -8.1390 o          1 FMM      -0.516500
      4 O4           4.8560    -0.0080    -5.8200 o          1 FMM      -0.516500
      5 C5           2.3950     0.5170    -6.6590 c3         1 FMM      -0.304400
      6 C6           1.7670    -0.7890    -6.1890 c3         1 FMM       0.183800
      7 N7           0.3640    -0.5580    -5.9050 n7         1 FMM      -0.850400
      8 C8          -0.3460    -1.8020    -5.6340 c3         1 FMM       0.129500
      9 C9          -1.7960    -1.5660    -5.4240 cc         1 FMM       0.134300
     10 C10         -2.8780    -1.6980    -6.2320 cd         1 FMM      -0.158000
     11 C11         -4.0050    -1.2750    -5.4740 cd         1 FMM      -0.164000
     12 C12         -3.5290    -0.9130    -4.2500 cc         1 FMM       0.188500
     13 O13         -2.1890    -1.0900    -4.2210 os         1 FMM      -0.251000
     14 C14         -4.1770    -0.4250    -3.0480 ca         1 FMM      -0.130500
     15 C15         -5.5540    -0.1040    -3.0860 ca         1 FMM      -0.068000
     16 C16         -6.2070     0.3400    -1.9720 ca         1 FMM      -0.096000
     17 C17         -5.5210     0.4940    -0.7490 ca         1 FMM       0.054000
     18 N18         -6.2070     0.9260     0.3410 nb         1 FMM      -0.203000
     19 C19         -5.5170     1.0350     1.4390 ca         1 FMM       0.171900
     20 N20         -4.2140     0.7770     1.6180 nb         1 FMM      -0.279000
     21 C21         -3.5180     0.3660     0.5810 ca         1 FMM       0.407900
     22 N22         -2.2010     0.1100     0.7250 nu         1 FMM      -0.929900
     23 C23         -1.4190     0.1960     1.8860 ca         1 FMM       0.266000
     24 C24         -1.8890    -0.0790     3.1650 ca         1 FMM      -0.065000
     25 C25         -1.0340    -0.0160     4.2550 ca         1 FMM      -0.177000
     26 C26          0.3100     0.3080     4.1050 ca         1 FMM       0.135100
     27 O27          1.2040     0.3880     5.1020 os         1 FMM      -0.323100
     28 C28          0.7750     0.0600     6.4180 c3         1 FMM       0.208900
     29 C29          1.9640     0.1940     7.3200 ca         1 FMM      -0.070300
     30 C30          2.0770     1.2710     8.1910 ca         1 FMM      -0.104000
     31 C31          3.1880     1.3920     9.0160 ca         1 FMM      -0.088000
     32 C32          4.2010     0.4450     8.9770 ca         1 FMM      -0.139000
     33 C33          4.0690    -0.6160     8.1010 ca         1 FMM       0.167000
     34 F34          5.0400    -1.5430     8.0580 f          1 FMM      -0.178000
     35 C35          2.9760    -0.7620     7.2730 ca         1 FMM      -0.123000
     36 C36          0.7720     0.5700     2.8130 ca         1 FMM       0.100000
     37 CL3          2.4370     0.9700     2.5850 cl         1 FMM      -0.176000
     38 C38         -0.0730     0.5240     1.7230 ca         1 FMM      -0.116000
     39 C39         -4.1470     0.1870    -0.7040 ca         1 FMM      -0.174000
     40 C40         -3.4920    -0.2730    -1.8580 ca         1 FMM      -0.054000
     41 H11A         5.7000     1.7610    -7.9460 h1         1 FMM       0.105033
     42 H12          4.0610     2.1200    -8.5500 h1         1 FMM       0.105033
     43 H13          4.5320     2.6060    -6.8960 h1         1 FMM       0.105033
     44 H51          2.3480     1.2900    -5.8890 h1         1 FMM       0.102200
     45 H52          1.8990     0.8830    -7.5600 h1         1 FMM       0.102200
     46 H61          1.8370    -1.5280    -6.9910 h1         1 FMM       0.052700
     47 H62          2.3230    -1.1890    -5.3310 h1         1 FMM       0.052700
     48 HN7          0.2890     0.0490    -5.0970 hn         1 FMM       0.416000
     49 H81         -0.2420    -2.4510    -6.5050 h1         1 FMM       0.053700
     50 H82          0.0700    -2.3550    -4.7800 h1         1 FMM       0.053700
     51 H10         -2.8710    -2.0560    -7.2490 ha         1 FMM       0.146000
     52 H11         -5.0320    -1.2580    -5.8000 ha         1 FMM       0.144000
     53 H15         -6.1040    -0.2090    -4.0110 ha         1 FMM       0.122000
     54 H16         -7.2610     0.5790    -2.0090 ha         1 FMM       0.139000
     55 H19         -6.0460     1.3750     2.3230 h5         1 FMM       0.047100
     56 H22         -1.6760    -0.0640    -0.1160 hn         1 FMM       0.502000
     57 H24         -2.9210    -0.3440     3.3300 ha         1 FMM       0.145000
     58 H25         -1.4430    -0.2350     5.2320 ha         1 FMM       0.123000
     59 H281        -0.0250     0.7330     6.7400 h1         1 FMM       0.045700
     60 H282         0.3860    -0.9630     6.4430 h1         1 FMM       0.045700
     61 H30          1.2940     2.0180     8.2300 ha         1 FMM       0.119000
     62 H31          3.2700     2.2320     9.6940 ha         1 FMM       0.120000
     63 H32          5.0710     0.5270     9.6150 ha         1 FMM       0.133000
     64 H35          2.9100    -1.6130     6.6060 ha         1 FMM       0.137000
     65 H38          0.3180     0.7450     0.7370 ha         1 FMM       0.128000
     66 H40         -2.4420    -0.5290    -1.8270 ha         1 FMM       0.117000
@<TRIPOS>BOND
     1     1     2 1   
     2     1    41 1   
     3     1    42 1   
     4     1    43 1   
     5     2     3 2   
     6     2     4 2   
     7     2     5 1   
     8     5     6 1   
     9     5    44 1   
    10     5    45 1   
    11     6     7 1   
    12     6    46 1   
    13     6    47 1   
    14     7     8 1   
    15     7    48 1   
    16     8     9 1   
    17     8    49 1   
    18     8    50 1   
    19     9    10 2   
    20     9    13 1   
    21    10    11 1   
    22    10    51 1   
    23    11    12 2   
    24    11    52 1   
    25    12    13 1   
    26    12    14 1   
    27    14    15 ar  
    28    14    40 ar  
    29    15    16 ar  
    30    15    53 1   
    31    16    17 ar  
    32    16    54 1   
    33    17    18 ar  
    34    17    39 ar  
    35    18    19 ar  
    36    19    20 ar  
    37    19    55 1   
    38    20    21 ar  
    39    21    22 1   
    40    21    39 ar  
    41    22    23 1   
    42    22    56 1   
    43    23    24 ar  
    44    23    38 ar  
    45    24    25 ar  
    46    24    57 1   
    47    25    26 ar  
    48    25    58 1   
    49    26    27 1   
    50    26    36 ar  
    51    27    28 1   
    52    28    29 1   
    53    28    59 1   
    54    28    60 1   
    55    29    30 ar  
    56    29    35 ar  
    57    30    31 ar  
    58    30    61 1   
    59    31    32 ar  
    60    31    62 1   
    61    32    33 ar  
    62    32    63 1   
    63    33    34 1   
    64    33    35 ar  
    65    35    64 1   
    66    36    37 1   
    67    36    38 ar  
    68    38    65 1   
    69    39    40 ar  
    70    40    66 1   
@<TRIPOS>SUBSTRUCTURE
     1 FMM         1 TEMP              0 ****  ****    0 ROOT
