@<TRIPOS>MOLECULE
FMM
   66    70     1     0     0
SMALL
No Charge or Current Charge


@<TRIPOS>ATOM
      1 C1           4.4770     1.9970    -8.2800 c3         1 FMM      -0.334100
      2 S2           4.1300     0.3930    -7.5620 s6         1 FMM       1.080000
      3 O3           4.2890    -0.6150    -8.6170 o          1 FMM      -0.516500
      4 O4           4.9140     0.2760    -6.3270 o          1 FMM      -0.516500
      5 C5           2.3900     0.4680    -7.1150 c3         1 FMM      -0.304400
      6 C6           1.9190    -0.8400    -6.4780 c3         1 FMM       0.183800
      7 N7           0.4880    -0.7040    -6.1770 n7         1 FMM      -0.850400
      8 C8          -0.1470    -1.8970    -5.5690 c3         1 FMM       0.129500
      9 C9          -1.6100    -1.6600    -5.2770 cc         1 FMM       0.134300
     10 C10         -2.7280    -1.9050    -6.0330 cd         1 FMM      -0.158000
     11 C11         -3.8480    -1.4940    -5.2780 cd         1 FMM      -0.164000
     12 C12         -3.3480    -1.0140    -4.0970 cc         1 FMM       0.188500
     13 O13         -1.9760    -1.1080    -4.0670 os         1 FMM      -0.251000
     14 C14         -4.1280    -0.4780    -2.9740 ca         1 FMM      -0.130500
     15 C15         -5.5120    -0.2290    -3.0910 ca         1 FMM      -0.068000
     16 C16         -6.2390     0.2800    -2.0040 ca         1 FMM      -0.096000
     17 C17         -5.6090     0.5570    -0.7790 ca         1 FMM       0.054000
     18 N18         -6.3200     1.0450     0.2580 nb         1 FMM      -0.203000
     19 C19         -5.6540     1.2920     1.4020 ca         1 FMM       0.171900
     20 N20         -4.3400     1.1050     1.6220 nb         1 FMM      -0.279000
     21 C21         -3.6200     0.6110     0.6000 ca         1 FMM       0.407900
     22 N22         -2.2480     0.4590     0.8190 nu         1 FMM      -0.929900
     23 C23         -1.4410     0.4270     1.9650 ca         1 FMM       0.266000
     24 C24         -1.9320     0.0180     3.2220 ca         1 FMM      -0.065000
     25 C25         -1.0880    -0.0160     4.3490 ca         1 FMM      -0.177000
     26 C26          0.2690     0.3550     4.2260 ca         1 FMM       0.135100
     27 O27          1.1370     0.3380     5.3030 os         1 FMM      -0.323100
     28 C28          0.7200    -0.0520     6.6230 c3         1 FMM       0.208900
     29 C29          1.9220     0.0460     7.5530 ca         1 FMM      -0.070300
     30 C30          2.1220     1.1960     8.3440 ca         1 FMM      -0.104000
     31 C31          3.2330     1.2860     9.2010 ca         1 FMM      -0.088000
     32 C32          4.1530     0.2260     9.2720 ca         1 FMM      -0.139000
     33 C33          3.9580    -0.9200     8.4850 ca         1 FMM       0.167000
     34 F34          4.8430    -1.9380     8.5510 f          1 FMM      -0.178000
     35 C35          2.8490    -1.0130     7.6280 ca         1 FMM      -0.123000
     36 C36          0.7620     0.7490     2.9640 ca         1 FMM       0.100000
     37 Cl3          2.4530     1.2110     2.7630 cl         1 FMM      -0.176000
     38 C38         -0.0870     0.7780     1.8440 ca         1 FMM      -0.116000
     39 C39         -4.2180     0.3190    -0.6510 ca         1 FMM      -0.174000
     40 C40         -3.4900    -0.1990    -1.7480 ca         1 FMM      -0.054000
     41 H11A         5.5320     2.0060    -8.5730 h1         1 FMM       0.105033
     42 H12          3.8240     2.1210    -9.1510 h1         1 FMM       0.105033
     43 H13          4.2710     2.7560    -7.5180 h1         1 FMM       0.105033
     44 H51          2.2800     1.3070    -6.4210 h1         1 FMM       0.102200
     45 H52          1.8380     0.6700    -8.0390 h1         1 FMM       0.102200
     46 H61          2.0890    -1.6750    -7.1740 h1         1 FMM       0.052700
     47 H62          2.4940    -1.0380    -5.5620 h1         1 FMM       0.052700
     48 HN7          0.3690     0.0850    -5.5290 hn         1 FMM       0.416000
     49 H81         -0.0630    -2.7620    -6.2420 h1         1 FMM       0.053700
     50 H82          0.3550    -2.1640    -4.6290 h1         1 FMM       0.053700
     51 H10         -2.7400    -2.3370    -7.0290 ha         1 FMM       0.146000
     52 H11         -4.8870    -1.5550    -5.5780 ha         1 FMM       0.144000
     53 H15         -6.0370    -0.4240    -4.0220 ha         1 FMM       0.122000
     54 H16         -7.3060     0.4630    -2.1130 ha         1 FMM       0.139000
     55 H19         -6.2380     1.6880     2.2320 h5         1 FMM       0.047100
     56 H22         -1.7190     0.4440    -0.0500 hn         1 FMM       0.502000
     57 H24         -2.9660    -0.2920     3.3300 ha         1 FMM       0.145000
     58 H25         -1.5060    -0.3360     5.2990 ha         1 FMM       0.123000
     59 H281        -0.0810     0.6060     6.9860 h1         1 FMM       0.045700
     60 H282         0.3440    -1.0830     6.6210 h1         1 FMM       0.045700
     61 H30          1.4160     2.0230     8.2920 ha         1 FMM       0.119000
     62 H31          3.3810     2.1770     9.8090 ha         1 FMM       0.120000
     63 H32          5.0140     0.2900     9.9320 ha         1 FMM       0.133000
     64 H35          2.7140    -1.9060     7.0220 ha         1 FMM       0.137000
     65 H38          0.3120     1.0850     0.8820 ha         1 FMM       0.128000
     66 H40         -2.4260    -0.4000    -1.6540 ha         1 FMM       0.117000
@<TRIPOS>BOND
     1     1     2 1   
     2     1    41 1   
     3     1    42 1   
     4     1    43 1   
     5     2     3 2   
     6     2     4 2   
     7     2     5 1   
     8     5     6 1   
     9     5    44 1   
    10     5    45 1   
    11     6     7 1   
    12     6    46 1   
    13     6    47 1   
    14     7     8 1   
    15     7    48 1   
    16     8     9 1   
    17     8    49 1   
    18     8    50 1   
    19     9    10 2   
    20     9    13 1   
    21    10    11 1   
    22    10    51 1   
    23    11    12 2   
    24    11    52 1   
    25    12    13 1   
    26    12    14 1   
    27    14    15 ar  
    28    14    40 ar  
    29    15    16 ar  
    30    15    53 1   
    31    16    17 ar  
    32    16    54 1   
    33    17    18 ar  
    34    17    39 ar  
    35    18    19 ar  
    36    19    20 ar  
    37    19    55 1   
    38    20    21 ar  
    39    21    22 1   
    40    21    39 ar  
    41    22    23 1   
    42    22    56 1   
    43    23    24 ar  
    44    23    38 ar  
    45    24    25 ar  
    46    24    57 1   
    47    25    26 ar  
    48    25    58 1   
    49    26    27 1   
    50    26    36 ar  
    51    27    28 1   
    52    28    29 1   
    53    28    59 1   
    54    28    60 1   
    55    29    30 ar  
    56    29    35 ar  
    57    30    31 ar  
    58    30    61 1   
    59    31    32 ar  
    60    31    62 1   
    61    32    33 ar  
    62    32    63 1   
    63    33    34 1   
    64    33    35 ar  
    65    35    64 1   
    66    36    37 1   
    67    36    38 ar  
    68    38    65 1   
    69    39    40 ar  
    70    40    66 1   
@<TRIPOS>SUBSTRUCTURE
     1 FMM         1 TEMP              0 ****  ****    0 ROOT
