@<TRIPOS>MOLECULE
FMQ
   26    27     1     0     0
SMALL
abcg2


@<TRIPOS>ATOM
      1 F12          4.9310    -0.1050    -0.0920 f          1 FMQ      -0.174000
      2 C9           3.5950    -0.0130    -0.0230 ca         1 FMQ       0.174000
      3 C8           2.9690     1.0750    -0.6020 ca         1 FMQ      -0.145500
      4 C7           1.5870     1.1590    -0.5420 ca         1 FMQ      -0.076500
      5 C10          2.8890    -1.0070     0.6250 ca         1 FMQ      -0.145500
      6 C11          1.5080    -0.9050     0.6970 ca         1 FMQ      -0.076500
      7 C6           0.8570     0.1700     0.1060 ca         1 FMQ      -0.001200
      8 N3          -0.5490     0.2750     0.1710 na         1 FMQ       0.216000
      9 C2          -1.4730    -0.6650    -0.1640 cc         1 FMQ      -0.116300
     10 C13         -1.1350    -2.0090    -0.7030 c3         1 FMQ      -0.032800
     11 N4          -1.1040     1.4170     0.5900 nc         1 FMQ      -0.514800
     12 C5          -2.4020     1.2050     0.5420 cd         1 FMQ       0.272900
     13 C1          -2.7010    -0.0890     0.0770 cd         1 FMQ      -0.206300
     14 C14         -4.0480    -0.7050    -0.0830 c3         1 FMQ       0.250900
     15 O15         -4.9540     0.2890    -0.5080 oh         1 FMQ      -0.655000
     16 H1           3.5470     1.8400    -1.1030 ha         1 FMQ       0.137000
     17 H2           1.0780     1.9960    -1.0000 ha         1 FMQ       0.134500
     18 H3           3.4040    -1.8420     1.0800 ha         1 FMQ       0.137000
     19 H4           0.9460    -1.6660     1.2220 ha         1 FMQ       0.134500
     20 H5          -0.9840    -2.7440     0.0880 hc         1 FMQ       0.052700
     21 H6          -1.9520    -2.3720    -1.3270 hc         1 FMQ       0.052700
     22 H7          -0.2350    -1.9880    -1.3160 hc         1 FMQ       0.052700
     23 H8          -3.0880     1.9850     0.8360 h4         1 FMQ       0.047100
     24 H9          -3.9920    -1.5370    -0.7990 h1         1 FMQ       0.020200
     25 H10         -4.3690    -1.1470     0.8690 h1         1 FMQ       0.020200
     26 H11         -5.8440    -0.0590    -0.4100 ho         1 FMQ       0.441000
@<TRIPOS>BOND
     1     1     2 1   
     2     2     3 ar  
     3     2     5 ar  
     4     3     4 ar  
     5     3    16 1   
     6     4     7 ar  
     7     4    17 1   
     8     5     6 ar  
     9     5    18 1   
    10     6     7 ar  
    11     6    19 1   
    12     7     8 1   
    13     8     9 1   
    14     8    11 1   
    15     9    10 1   
    16     9    13 2   
    17    10    20 1   
    18    10    21 1   
    19    10    22 1   
    20    11    12 2   
    21    12    13 1   
    22    12    23 1   
    23    13    14 1   
    24    14    15 1   
    25    14    24 1   
    26    14    25 1   
    27    15    26 1   
@<TRIPOS>SUBSTRUCTURE
     1 FMQ         1 TEMP              0 ****  ****    0 ROOT
