@<TRIPOS>MOLECULE
FMQ
   26    27     1     0     0
SMALL
No Charge or Current Charge


@<TRIPOS>ATOM
      1 F12          4.9440    -0.1920    -0.2520 f          1 FMQ      -0.174000
      2 C9           3.6070    -0.0650    -0.1150 ca         1 FMQ       0.174000
      3 C8           2.9450     1.0220    -0.7060 ca         1 FMQ      -0.145500
      4 C7           1.5510     1.1550    -0.5640 ca         1 FMQ      -0.076500
      5 C10          2.8860    -1.0190     0.6200 ca         1 FMQ      -0.145500
      6 C11          1.4930    -0.8880     0.7630 ca         1 FMQ      -0.076500
      7 C6           0.8180     0.1990     0.1680 ca         1 FMQ      -0.001200
      8 N3          -0.5660     0.3310     0.3050 na         1 FMQ       0.216000
      9 C2          -1.4870    -0.6140    -0.1360 cc         1 FMQ      -0.116300
     10 C13         -1.1870    -1.8900    -0.8840 c3         1 FMQ      -0.032800
     11 N4          -1.0830     1.4220     0.9590 nc         1 FMQ      -0.514800
     12 C5          -2.3760     1.1540     0.9140 cd         1 FMQ       0.272900
     13 C1          -2.6800    -0.0700     0.2630 cd         1 FMQ      -0.206300
     14 C14         -4.0620    -0.6290     0.0730 c3         1 FMQ       0.250900
     15 O15         -4.6010    -0.1970    -1.1770 oh         1 FMQ      -0.655000
     16 H1           3.5100     1.7580    -1.2730 ha         1 FMQ       0.137000
     17 H2           1.0390     1.9980    -1.0240 ha         1 FMQ       0.134500
     18 H3           3.4070    -1.8570     1.0770 ha         1 FMQ       0.137000
     19 H4           0.9380    -1.6270     1.3380 ha         1 FMQ       0.134500
     20 H5          -0.9510    -2.7030    -0.1880 hc         1 FMQ       0.052700
     21 H6          -2.0460    -2.2030    -1.4890 hc         1 FMQ       0.052700
     22 H7          -0.3350    -1.7630    -1.5620 hc         1 FMQ       0.052700
     23 H8          -3.0730     1.8530     1.3590 h4         1 FMQ       0.047100
     24 H9          -4.0160    -1.7260     0.1110 h1         1 FMQ       0.020200
     25 H10         -4.7010    -0.2930     0.9000 h1         1 FMQ       0.020200
     26 H11         -5.4940    -0.5980    -1.2480 ho         1 FMQ       0.441000
@<TRIPOS>BOND
     1     1     2 1   
     2     2     3 ar  
     3     2     5 ar  
     4     3     4 ar  
     5     3    16 1   
     6     4     7 ar  
     7     4    17 1   
     8     5     6 ar  
     9     5    18 1   
    10     6     7 ar  
    11     6    19 1   
    12     7     8 1   
    13     8     9 1   
    14     8    11 1   
    15     9    10 1   
    16     9    13 2   
    17    10    20 1   
    18    10    21 1   
    19    10    22 1   
    20    11    12 2   
    21    12    13 1   
    22    12    23 1   
    23    13    14 1   
    24    14    15 1   
    25    14    24 1   
    26    14    25 1   
    27    15    26 1   
@<TRIPOS>SUBSTRUCTURE
     1 FMQ         1 TEMP              0 ****  ****    0 ROOT
