@<TRIPOS>MOLECULE
FMS
   10     9     1     0     0
SMALL
abcg2


@<TRIPOS>ATOM
      1 C           -0.1180     0.0180    -0.9620 c3         1 FMS       0.129000
      2 F1          -0.0400     1.2480    -1.4480 f          1 FMS      -0.100000
      3 F2           0.8330    -0.7270    -1.4990 f          1 FMS      -0.100000
      4 F3          -1.3000    -0.4940    -1.2620 f          1 FMS      -0.100000
      5 S            0.0960     0.0840     0.8660 s6         1 FMS       1.183100
      6 N           -0.0530    -1.4800     1.2540 n8         1 FMS      -1.066100
      7 O1          -1.0430     0.8270     1.3560 o          1 FMS      -0.489000
      8 O2           1.4570     0.5260     1.0670 o          1 FMS      -0.489000
      9 HN1         -0.8830    -1.7400     1.7710 hn         1 FMS       0.515000
     10 HN2          0.7900    -1.9630     1.5330 hn         1 FMS       0.515000
@<TRIPOS>BOND
     1     1     2 1   
     2     1     3 1   
     3     1     4 1   
     4     1     5 1   
     5     5     6 1   
     6     5     7 2   
     7     5     8 2   
     8     6     9 1   
     9     6    10 1   
@<TRIPOS>SUBSTRUCTURE
     1 FMS         1 TEMP              0 ****  ****    0 ROOT
