@<TRIPOS>MOLECULE
FMS
   10     9     1     0     0
SMALL
No Charge or Current Charge


@<TRIPOS>ATOM
      1 C           -0.1260     0.0450    -1.0340 c3         1 FMS       0.129000
      2 F1          -0.0300     1.3120    -1.5050 f          1 FMS      -0.100000
      3 F2           0.8230    -0.6940    -1.6610 f          1 FMS      -0.100000
      4 F3          -1.3350    -0.4380    -1.4130 f          1 FMS      -0.100000
      5 S            0.0790    -0.0030     0.8040 s6         1 FMS       1.183100
      6 N           -0.0670    -1.6010     1.1820 n8         1 FMS      -1.066100
      7 O1          -1.0530     0.6390     1.4740 o          1 FMS      -0.489000
      8 O2           1.4490     0.3430     1.1870 o          1 FMS      -0.489000
      9 HN1         -0.7790    -1.5600     1.9100 hn         1 FMS       0.515000
     10 HN2          0.7790    -1.7450     1.7310 hn         1 FMS       0.515000
@<TRIPOS>BOND
     1     1     2 1   
     2     1     3 1   
     3     1     4 1   
     4     1     5 1   
     5     5     6 1   
     6     5     7 2   
     7     5     8 2   
     8     6     9 1   
     9     6    10 1   
@<TRIPOS>SUBSTRUCTURE
     1 FMS         1 TEMP              0 ****  ****    0 ROOT
