@<TRIPOS>MOLECULE
FMT
    4     3     1     0     0
SMALL
bcc


@<TRIPOS>ATOM
      1 C            0.8820    33.9350    -2.2060 c          1 FMT       0.928400
      2 O1           1.9690    33.3400    -2.1010 o          1 FMT      -0.874300
      3 O2           0.3160    34.6730    -1.3810 o          1 FMT      -0.874300
      4 H            0.3380    33.7870    -3.1810 h5         1 FMT      -0.179800
@<TRIPOS>BOND
     1     1     2 1   
     2     1     3 1   
     3     1     4 1   
@<TRIPOS>SUBSTRUCTURE
     1 FMT         1 TEMP              0 ****  ****    0 ROOT
