@<TRIPOS>MOLECULE
FMT
    4     3     1     0     0
SMALL
No Charge or Current Charge


@<TRIPOS>ATOM
      1 C            0.8720    33.9330    -2.2240 c          1 FMT       0.717800
      2 O1           1.9430    33.3660    -2.0800 o          1 FMT      -0.769000
      3 O2           0.3510    34.6490    -1.3860 o          1 FMT      -0.769000
      4 H            0.3390    33.7870    -3.1790 h5         1 FMT      -0.179800
@<TRIPOS>BOND
     1     1     2 1   
     2     1     3 1   
     3     1     4 1   
@<TRIPOS>SUBSTRUCTURE
     1 FMT         1 TEMP              0 ****  ****    0 ROOT
