@<TRIPOS>MOLECULE
FMV
   72    75     1     0     0
SMALL
No Charge or Current Charge


@<TRIPOS>ATOM
      1 C1          -5.9470     2.3740     0.2980 c6         1 FMV       0.211500
      2 O1          -5.4340     2.4470    -1.0330 oh         1 FMV      -0.656000
      3 C2          -7.4020     1.8450     0.2990 c6         1 FMV      -0.065400
      4 C3          -7.4720     0.3460    -0.0830 c6         1 FMV       0.176300
      5 O3          -8.8280    -0.1130    -0.0030 oh         1 FMV      -0.662000
      6 C4          -6.5690    -0.4970     0.8500 c6         1 FMV      -0.073200
      7 C5          -5.1280     0.0290     0.8440 ce         1 FMV      -0.064200
      8 C6          -4.0730    -0.8140     0.6380 cf         1 FMV      -0.164000
      9 C7          -2.6610    -0.4260     0.5910 cf         1 FMV      -0.190000
     10 C8          -1.5730    -1.2490     0.5580 c2         1 FMV      -0.079400
     11 C9          -1.6470    -2.7810     0.6280 c6         1 FMV      -0.042200
     12 C10         -5.0310     1.4720     1.1400 ce         1 FMV      -0.126200
     13 C11         -0.8160    -3.4620    -0.4910 c6         1 FMV      -0.072400
     14 C12          0.6210    -2.8790    -0.6020 c6         1 FMV      -0.063400
     15 C13          0.6130    -1.3200    -0.7320 c5         1 FMV      -0.036000
     16 C14         -0.1220    -0.7350     0.5230 c5         1 FMV      -0.035500
     17 C15          0.0840     0.7930     0.3420 c5         1 FMV      -0.070400
     18 C16          1.5690     0.8750    -0.1370 c5         1 FMV      -0.076400
     19 C17          1.9980    -0.6030    -0.4870 c5         1 FMV      -0.053700
     20 C18         -0.0270    -0.9370    -2.1130 c3         1 FMV      -0.081100
     21 C19         -4.2360     1.9770     2.1100 c2         1 FMV      -0.295000
     22 C20          3.1010    -0.6590    -1.5970 c3         1 FMV      -0.077000
     23 C21          3.5780    -2.0790    -1.9790 c3         1 FMV      -0.084100
     24 C22          4.2890     0.1910    -1.2210 cc         1 FMV       0.137300
     25 O22          5.0270    -0.1300    -0.1030 os         1 FMV      -0.240000
     26 C23          4.8120     1.3100    -1.8080 cd         1 FMV      -0.187000
     27 C24          5.9170     1.7080    -1.0290 cd         1 FMV      -0.170000
     28 C25          6.0260     0.8150     0.0060 cc         1 FMV       0.091300
     29 C26          7.0060     0.7290     1.1650 c3         1 FMV       0.164700
     30 O26          8.0390     1.7120     1.0200 oh         1 FMV      -0.651000
     31 C27          6.2840     1.0150     2.5000 c3         1 FMV      -0.099600
     32 C28          7.6930    -0.6560     1.2020 c3         1 FMV      -0.099600
     33 H1          -5.9550     3.3830     0.7380 h1         1 FMV       0.037700
     34 HO1         -4.4590     2.4940    -0.9370 ho         1 FMV       0.444000
     35 H2          -7.8310     1.9870     1.2990 hc         1 FMV       0.062200
     36 H2A         -8.0150     2.4400    -0.3900 hc         1 FMV       0.062200
     37 H3          -7.1020     0.2350    -1.1140 h1         1 FMV       0.049700
     38 HO3         -8.8300    -1.0420    -0.3240 ho         1 FMV       0.441000
     39 H4          -6.9590    -0.4660     1.8770 hc         1 FMV       0.051700
     40 H4A         -6.5990    -1.5510     0.5400 hc         1 FMV       0.051700
     41 H6          -4.3130    -1.8610     0.4640 ha         1 FMV       0.170000
     42 H7          -2.4940     0.6490     0.5820 ha         1 FMV       0.174000
     43 H9          -1.2550    -3.1010     1.6030 hc         1 FMV       0.046700
     44 H9A         -2.6710    -3.1630     0.5870 hc         1 FMV       0.046700
     45 H11         -0.7600    -4.5420    -0.3000 hc         1 FMV       0.041200
     46 H11A        -1.3400    -3.3570    -1.4510 hc         1 FMV       0.041200
     47 H12          1.1970    -3.1720     0.2860 hc         1 FMV       0.041200
     48 H12A         1.1190    -3.3480    -1.4580 hc         1 FMV       0.041200
     49 H14          0.3720    -1.0580     1.4490 hc         1 FMV       0.054700
     50 H15         -0.5830     1.2250    -0.4120 hc         1 FMV       0.044200
     51 H15A        -0.0830     1.3450     1.2740 hc         1 FMV       0.044200
     52 H16          1.6520     1.5420    -1.0040 hc         1 FMV       0.046200
     53 H16A         2.2190     1.2960     0.6390 hc         1 FMV       0.046200
     54 H17          2.4700    -1.0440     0.4010 hc         1 FMV       0.054700
     55 H18         -1.0990    -1.1620    -2.1510 hc         1 FMV       0.035033
     56 H18A         0.0800     0.1270    -2.3510 hc         1 FMV       0.035033
     57 H18B         0.4510    -1.4870    -2.9320 hc         1 FMV       0.035033
     58 H19         -3.6090     1.3330     2.7260 ha         1 FMV       0.168500
     59 H19A        -4.1940     3.0450     2.3250 ha         1 FMV       0.168500
     60 H20          2.6820    -0.2210    -2.5110 hc         1 FMV       0.062700
     61 H21          3.7970    -2.6760    -1.0860 hc         1 FMV       0.039700
     62 H21A         2.8270    -2.5980    -2.5820 hc         1 FMV       0.039700
     63 H21B         4.4910    -2.0250    -2.5850 hc         1 FMV       0.039700
     64 H23          4.4370     1.7980    -2.7010 ha         1 FMV       0.139000
     65 H24          6.5580     2.5660    -1.2060 ha         1 FMV       0.144000
     66 HO26         8.4960     1.5230     0.1730 ho         1 FMV       0.446000
     67 H27          5.4990     0.2720     2.6840 hc         1 FMV       0.047867
     68 H27A         6.9870     0.9840     3.3420 hc         1 FMV       0.047867
     69 H27B         5.8150     2.0060     2.4810 hc         1 FMV       0.047867
     70 H28          8.2030    -0.8650     0.2540 hc         1 FMV       0.047867
     71 H28A         8.4350    -0.7050     2.0090 hc         1 FMV       0.047867
     72 H28B         6.9580    -1.4510     1.3720 hc         1 FMV       0.047867
@<TRIPOS>BOND
     1     1     2 1   
     2     1     3 1   
     3     1    12 1   
     4     1    33 1   
     5     2    34 1   
     6     3     4 1   
     7     3    35 1   
     8     3    36 1   
     9     4     5 1   
    10     4     6 1   
    11     4    37 1   
    12     5    38 1   
    13     6     7 1   
    14     6    39 1   
    15     6    40 1   
    16     7     8 2   
    17     7    12 1   
    18     8     9 1   
    19     8    41 1   
    20     9    10 2   
    21     9    42 1   
    22    10    11 1   
    23    10    16 1   
    24    11    13 1   
    25    11    43 1   
    26    11    44 1   
    27    12    21 2   
    28    13    14 1   
    29    13    45 1   
    30    13    46 1   
    31    14    15 1   
    32    14    47 1   
    33    14    48 1   
    34    15    16 1   
    35    15    19 1   
    36    15    20 1   
    37    16    17 1   
    38    16    49 1   
    39    17    18 1   
    40    17    50 1   
    41    17    51 1   
    42    18    19 1   
    43    18    52 1   
    44    18    53 1   
    45    19    22 1   
    46    19    54 1   
    47    20    55 1   
    48    20    56 1   
    49    20    57 1   
    50    21    58 1   
    51    21    59 1   
    52    22    23 1   
    53    22    24 1   
    54    22    60 1   
    55    23    61 1   
    56    23    62 1   
    57    23    63 1   
    58    24    25 1   
    59    24    26 2   
    60    25    28 1   
    61    26    27 1   
    62    26    64 1   
    63    27    28 2   
    64    27    65 1   
    65    28    29 1   
    66    29    30 1   
    67    29    31 1   
    68    29    32 1   
    69    30    66 1   
    70    31    67 1   
    71    31    68 1   
    72    31    69 1   
    73    32    70 1   
    74    32    71 1   
    75    32    72 1   
@<TRIPOS>SUBSTRUCTURE
     1 FMV         1 TEMP              0 ****  ****    0 ROOT
