@<TRIPOS>MOLECULE
FMV
   72    75     1     0     0
SMALL
abcg2


@<TRIPOS>ATOM
      1 C1          -5.8830     2.2290     0.0130 c6         1 FMV       0.211500
      2 O1          -5.3130     2.1220    -1.2790 oh         1 FMV      -0.656000
      3 C2          -7.2960     1.6690    -0.0580 c6         1 FMV      -0.065400
      4 C3          -7.3080     0.1710    -0.3240 c6         1 FMV       0.176300
      5 O3          -8.6570    -0.2500    -0.3250 oh         1 FMV      -0.662000
      6 C4          -6.4890    -0.5640     0.7400 c6         1 FMV      -0.073200
      7 C5          -5.0950    -0.0060     0.8460 ce         1 FMV      -0.064200
      8 C6          -4.0110    -0.7970     0.7630 cf         1 FMV      -0.164000
      9 C7          -2.6270    -0.3620     0.7550 cf         1 FMV      -0.190000
     10 C8          -1.5490    -1.1620     0.7750 c2         1 FMV      -0.079400
     11 C9          -1.5770    -2.6620     0.8810 c6         1 FMV      -0.042200
     12 C10         -5.0550     1.4580     1.0160 ce         1 FMV      -0.126200
     13 C11         -0.7760    -3.3270    -0.2430 c6         1 FMV      -0.072400
     14 C12          0.6350    -2.7540    -0.3840 c6         1 FMV      -0.063400
     15 C13          0.6200    -1.2290    -0.5210 c5         1 FMV      -0.036000
     16 C14         -0.1460    -0.6510     0.6970 c5         1 FMV      -0.035500
     17 C15          0.1430     0.8410     0.6420 c5         1 FMV      -0.070400
     18 C16          1.6020     0.9060     0.1480 c5         1 FMV      -0.076400
     19 C17          1.9810    -0.5180    -0.3350 c5         1 FMV      -0.053700
     20 C18         -0.0420    -0.8090    -1.8360 c3         1 FMV      -0.081100
     21 C19         -4.3850     2.0810     1.9840 c2         1 FMV      -0.295000
     22 C20          2.9490    -0.4790    -1.5310 c3         1 FMV      -0.077000
     23 C21          3.3900    -1.8620    -2.0190 c3         1 FMV      -0.084100
     24 C22          4.1400     0.3570    -1.2050 cc         1 FMV       0.137300
     25 O22          4.9660    -0.0870    -0.2270 os         1 FMV      -0.240000
     26 C23          4.6140     1.5290    -1.6900 cd         1 FMV      -0.187000
     27 C24          5.8060     1.8250    -0.9550 cd         1 FMV      -0.170000
     28 C25          5.9710     0.8060    -0.0790 cc         1 FMV       0.091300
     29 C26          7.0130     0.5190     0.9660 c3         1 FMV       0.164700
     30 O26          7.9940     1.5340     0.9050 oh         1 FMV      -0.651000
     31 C27          6.3980     0.5960     2.3620 c3         1 FMV      -0.099600
     32 C28          7.6430    -0.8570     0.7360 c3         1 FMV      -0.099600
     33 H1          -5.9350     3.2790     0.3290 h1         1 FMV       0.037700
     34 HO1         -4.4020     2.4290    -1.2300 ho         1 FMV       0.444000
     35 H2          -7.7910     1.8710     0.8970 hc         1 FMV       0.062200
     36 H2A         -7.8620     2.1990    -0.8300 hc         1 FMV       0.062200
     37 H3          -6.8500    -0.0230    -1.3030 h1         1 FMV       0.049700
     38 HO3         -8.6810    -1.1790    -0.5730 ho         1 FMV       0.441000
     39 H4          -7.0060    -0.4500     1.7020 hc         1 FMV       0.051700
     40 H4A         -6.4530    -1.6340     0.5180 hc         1 FMV       0.051700
     41 H6          -4.1940    -1.8600     0.6450 ha         1 FMV       0.170000
     42 H7          -2.4690     0.7100     0.7100 ha         1 FMV       0.174000
     43 H9          -1.1210    -2.9380     1.8390 hc         1 FMV       0.046700
     44 H9A         -2.5910    -3.0600     0.8980 hc         1 FMV       0.046700
     45 H11         -0.7130    -4.4010    -0.0490 hc         1 FMV       0.041200
     46 H11A        -1.3200    -3.2230    -1.1860 hc         1 FMV       0.041200
     47 H12          1.2210    -3.0250     0.5020 hc         1 FMV       0.041200
     48 H12A         1.1250    -3.2290    -1.2350 hc         1 FMV       0.041200
     49 H14          0.3800    -1.0460     1.5810 hc         1 FMV       0.054700
     50 H15         -0.5220     1.3450    -0.0630 hc         1 FMV       0.044200
     51 H15A         0.0020     1.3240     1.6090 hc         1 FMV       0.044200
     52 H16          1.7100     1.6340    -0.6580 hc         1 FMV       0.046200
     53 H16A         2.2770     1.2340     0.9400 hc         1 FMV       0.046200
     54 H17          2.4950    -1.0340     0.4860 hc         1 FMV       0.054700
     55 H18         -1.0990    -1.0760    -1.8620 hc         1 FMV       0.035033
     56 H18A         0.0130     0.2680    -2.0000 hc         1 FMV       0.035033
     57 H18B         0.4360    -1.2920    -2.6910 hc         1 FMV       0.035033
     58 H19         -3.8100     1.5380     2.7230 ha         1 FMV       0.168500
     59 H19A        -4.4070     3.1600     2.0760 ha         1 FMV       0.168500
     60 H20          2.4490     0.0370    -2.3570 hc         1 FMV       0.062700
     61 H21          3.7970    -2.4630    -1.2050 hc         1 FMV       0.039700
     62 H21A         2.5590    -2.4140    -2.4530 hc         1 FMV       0.039700
     63 H21B         4.1570    -1.7720    -2.7890 hc         1 FMV       0.039700
     64 H23          4.1630     2.1180    -2.4740 ha         1 FMV       0.139000
     65 H24          6.4450     2.6860    -1.0690 ha         1 FMV       0.144000
     66 HO26         8.4710     1.4520     0.0700 ho         1 FMV       0.446000
     67 H27          5.6020    -0.1390     2.4770 hc         1 FMV       0.047867
     68 H27A         7.1550     0.3930     3.1220 hc         1 FMV       0.047867
     69 H27B         5.9780     1.5850     2.5490 hc         1 FMV       0.047867
     70 H28          8.1080    -0.9170    -0.2500 hc         1 FMV       0.047867
     71 H28A         8.4110    -1.0460     1.4880 hc         1 FMV       0.047867
     72 H28B         6.9040    -1.6550     0.8060 hc         1 FMV       0.047867
@<TRIPOS>BOND
     1     1     2 1   
     2     1     3 1   
     3     1    12 1   
     4     1    33 1   
     5     2    34 1   
     6     3     4 1   
     7     3    35 1   
     8     3    36 1   
     9     4     5 1   
    10     4     6 1   
    11     4    37 1   
    12     5    38 1   
    13     6     7 1   
    14     6    39 1   
    15     6    40 1   
    16     7     8 2   
    17     7    12 1   
    18     8     9 1   
    19     8    41 1   
    20     9    10 2   
    21     9    42 1   
    22    10    11 1   
    23    10    16 1   
    24    11    13 1   
    25    11    43 1   
    26    11    44 1   
    27    12    21 2   
    28    13    14 1   
    29    13    45 1   
    30    13    46 1   
    31    14    15 1   
    32    14    47 1   
    33    14    48 1   
    34    15    16 1   
    35    15    19 1   
    36    15    20 1   
    37    16    17 1   
    38    16    49 1   
    39    17    18 1   
    40    17    50 1   
    41    17    51 1   
    42    18    19 1   
    43    18    52 1   
    44    18    53 1   
    45    19    22 1   
    46    19    54 1   
    47    20    55 1   
    48    20    56 1   
    49    20    57 1   
    50    21    58 1   
    51    21    59 1   
    52    22    23 1   
    53    22    24 1   
    54    22    60 1   
    55    23    61 1   
    56    23    62 1   
    57    23    63 1   
    58    24    25 1   
    59    24    26 2   
    60    25    28 1   
    61    26    27 1   
    62    26    64 1   
    63    27    28 2   
    64    27    65 1   
    65    28    29 1   
    66    29    30 1   
    67    29    31 1   
    68    29    32 1   
    69    30    66 1   
    70    31    67 1   
    71    31    68 1   
    72    31    69 1   
    73    32    70 1   
    74    32    71 1   
    75    32    72 1   
@<TRIPOS>SUBSTRUCTURE
     1 FMV         1 TEMP              0 ****  ****    0 ROOT
