@<TRIPOS>MOLECULE
FMW
   63    66     1     0     0
SMALL
No Charge or Current Charge


@<TRIPOS>ATOM
      1 C12         -4.2180     1.0330    -0.1100 ca         1 FMW       0.650900
      2 C13         -5.9470    -0.8500     0.1500 c3         1 FMW       0.237800
      3 C8          -2.5780     2.7880    -0.3680 ca         1 FMW      -0.117000
      4 C9          -1.2350     3.2050    -0.4060 ca         1 FMW       0.155900
      5 C10         -3.6530     3.6730    -0.5520 ca         1 FMW      -0.196000
      6 C11         -4.9680     3.1760    -0.5010 ca         1 FMW       0.400300
      7 C14         -5.9490    -2.3890     0.4150 c3         1 FMW      -0.063000
      8 C15         -5.3000    -2.7150     1.7890 c3         1 FMW      -0.085767
      9 N3          -5.2510     1.8740    -0.2860 nb         1 FMW      -0.776000
     10 C1           3.9450    -1.1170     0.0730 ca         1 FMW      -0.130000
     11 C2           4.6710     0.0460     0.4110 ca         1 FMW      -0.129500
     12 C3           3.9530     1.2180     0.7290 ca         1 FMW      -0.103000
     13 C4           2.5510     1.2490     0.6420 ca         1 FMW      -0.126000
     14 C7          -2.8520     1.4230    -0.1380 ca         1 FMW      -0.019000
     15 N1          -1.8240     0.5540     0.0420 nb         1 FMW      -0.243000
     16 N2          -0.2260     2.3310    -0.2270 nb         1 FMW      -0.209000
     17 C5           1.8280     0.1080     0.2490 ca         1 FMW       0.313000
     18 C6          -0.5730     1.0500    -0.0010 ca         1 FMW       0.373900
     19 C23          1.3030    -4.4910    -0.9740 c3         1 FMW      -0.096100
     20 C22          2.4230    -3.4920    -0.6440 c3         1 FMW       0.169600
     21 C            2.5330    -1.0940    -0.0160 ca         1 FMW       0.088100
     22 C19          6.1390    -0.0200     0.5430 cc         1 FMW       0.447000
     23 N7           6.8130    -1.1030     0.9020 nd         1 FMW      -0.364000
     24 N6           8.1500    -0.7930     0.9170 nd         1 FMW      -0.356000
     25 C20          8.2770     0.4710     0.5500 cc         1 FMW       0.365400
     26 N5           7.0360     0.9990     0.2850 na         1 FMW      -0.362000
     27 C21          6.7730     2.3410    -0.2650 c3         1 FMW       0.061900
     28 N            0.4230     0.0970     0.1590 nu         1 FMW      -0.920900
     29 C18         -6.1590     4.0930    -0.7000 c3         1 FMW      -0.141400
     30 N4          -4.5890    -0.2820     0.1060 nu         1 FMW      -0.918100
     31 C17         -7.4220    -2.8750     0.4370 c3         1 FMW      -0.085767
     32 C16         -5.1960    -3.1460    -0.7150 c3         1 FMW      -0.085767
     33 H1          -6.4570    -0.6520    -0.8030 h1         1 FMW       0.052200
     34 H2          -6.5270    -0.3520     0.9400 h1         1 FMW       0.052200
     35 H3          -0.9620     4.2440    -0.5840 h4         1 FMW       0.027100
     36 H4          -3.4760     4.7300    -0.7340 ha         1 FMW       0.124000
     37 H5          -5.8050    -2.1730     2.5980 hc         1 FMW       0.036256
     38 H6          -5.3680    -3.7880     2.0080 hc         1 FMW       0.036256
     39 H7          -4.2390    -2.4400     1.8090 hc         1 FMW       0.036256
     40 H8           4.4930    -2.0330    -0.1310 ha         1 FMW       0.140000
     41 H9           4.4710     2.1090     1.0720 ha         1 FMW       0.113000
     42 H10          2.0340     2.1630     0.9130 ha         1 FMW       0.153000
     43 H11          0.6190    -4.6000    -0.1240 hc         1 FMW       0.048033
     44 H12          0.7300    -4.1530    -1.8460 hc         1 FMW       0.048033
     45 H13          1.7280    -5.4750    -1.2030 hc         1 FMW       0.048033
     46 H14          2.9910    -3.8550     0.2230 h1         1 FMW       0.040700
     47 H15          3.1020    -3.4080    -1.5030 h1         1 FMW       0.040700
     48 H16          9.1990     1.0290     0.4400 h5         1 FMW       0.061100
     49 H17          6.5510     3.0400     0.5510 h1         1 FMW       0.057033
     50 H18          7.6550     2.6990    -0.8100 h1         1 FMW       0.057033
     51 H19          5.9230     2.3040    -0.9580 h1         1 FMW       0.057033
     52 H20          0.0660    -0.8550     0.0730 hn         1 FMW       0.527000
     53 H21         -6.9850     3.8270    -0.0310 hc         1 FMW       0.049367
     54 H22         -5.8950     5.1380    -0.4980 hc         1 FMW       0.049367
     55 H23         -6.5260     4.0340    -1.7310 hc         1 FMW       0.049367
     56 H24         -3.8040    -0.9120     0.2410 hn         1 FMW       0.517000
     57 H25         -7.9180    -2.6700    -0.5200 hc         1 FMW       0.036256
     58 H26         -7.4780    -3.9560     0.6210 hc         1 FMW       0.036256
     59 H27         -7.9910    -2.3690     1.2270 hc         1 FMW       0.036256
     60 H28         -4.1320    -2.8800    -0.7390 hc         1 FMW       0.036256
     61 H29         -5.2620    -4.2320    -0.5680 hc         1 FMW       0.036256
     62 H30         -5.6250    -2.9120    -1.6960 hc         1 FMW       0.036256
     63 O            1.8030    -2.2270    -0.3560 os         1 FMW      -0.373100
@<TRIPOS>BOND
     1     1     9 ar  
     2     1    14 ar  
     3     1    30 1   
     4     2     7 1   
     5     2    30 1   
     6     2    33 1   
     7     2    34 1   
     8     3     4 ar  
     9     3     5 ar  
    10     3    14 ar  
    11     4    16 ar  
    12     4    35 1   
    13     5     6 ar  
    14     5    36 1   
    15     6     9 ar  
    16     6    29 1   
    17     7     8 1   
    18     7    31 1   
    19     7    32 1   
    20     8    37 1   
    21     8    38 1   
    22     8    39 1   
    23    10    11 ar  
    24    10    21 ar  
    25    10    40 1   
    26    11    12 ar  
    27    11    22 1   
    28    12    13 ar  
    29    12    41 1   
    30    13    17 ar  
    31    13    42 1   
    32    14    15 ar  
    33    15    18 ar  
    34    16    18 ar  
    35    17    21 ar  
    36    17    28 1   
    37    18    28 1   
    38    19    20 1   
    39    19    43 1   
    40    19    44 1   
    41    19    45 1   
    42    20    46 1   
    43    20    47 1   
    44    20    63 1   
    45    21    63 1   
    46    22    23 2   
    47    22    26 1   
    48    23    24 1   
    49    24    25 2   
    50    25    26 1   
    51    25    48 1   
    52    26    27 1   
    53    27    49 1   
    54    27    50 1   
    55    27    51 1   
    56    28    52 1   
    57    29    53 1   
    58    29    54 1   
    59    29    55 1   
    60    30    56 1   
    61    31    57 1   
    62    31    58 1   
    63    31    59 1   
    64    32    60 1   
    65    32    61 1   
    66    32    62 1   
@<TRIPOS>SUBSTRUCTURE
     1 FMW         1 TEMP              0 ****  ****    0 ROOT
