@<TRIPOS>MOLECULE
FMW
   63    66     1     0     0
SMALL
abcg2


@<TRIPOS>ATOM
      1 C12         -4.2020     1.0150    -0.0630 ca         1 FMW       0.650900
      2 C13         -5.7540    -0.8680    -0.2790 c3         1 FMW       0.237800
      3 C8          -2.5990     2.8330     0.0870 ca         1 FMW      -0.117000
      4 C9          -1.2410     3.1940     0.1680 ca         1 FMW       0.155900
      5 C10         -3.6940     3.7300     0.0630 ca         1 FMW      -0.196000
      6 C11         -4.9520     3.2060    -0.0250 ca         1 FMW       0.400300
      7 C14         -5.7760    -2.3870    -0.0800 c3         1 FMW      -0.063000
      8 C15         -5.3250    -2.7540     1.3350 c3         1 FMW      -0.085767
      9 N3          -5.1940     1.8700    -0.0910 nb         1 FMW      -0.776000
     10 C1           3.8380    -1.0730     0.2530 ca         1 FMW      -0.130000
     11 C2           4.5650     0.1240     0.2910 ca         1 FMW      -0.129500
     12 C3           3.8730     1.3250     0.2940 ca         1 FMW      -0.103000
     13 C4           2.4850     1.3480     0.2430 ca         1 FMW      -0.126000
     14 C7          -2.8260     1.4550     0.0270 ca         1 FMW      -0.019000
     15 N1          -1.8410     0.5540     0.0420 nb         1 FMW      -0.243000
     16 N2          -0.2710     2.3190     0.1850 nb         1 FMW      -0.209000
     17 C5           1.7520     0.1680     0.1950 ca         1 FMW       0.313000
     18 C6          -0.6080     1.0170     0.1200 ca         1 FMW       0.373900
     19 C23          1.2130    -4.4880     0.1540 c3         1 FMW      -0.096100
     20 C22          2.3030    -3.4450     0.1820 c3         1 FMW       0.169600
     21 C            2.4590    -1.0590     0.2060 ca         1 FMW       0.088100
     22 C19          6.0200     0.0430     0.3740 cc         1 FMW       0.447000
     23 N7           6.6710    -0.9190     0.9810 nd         1 FMW      -0.364000
     24 N6           7.9950    -0.6840     0.8410 nd         1 FMW      -0.356000
     25 C20          8.1230     0.4130     0.1550 cc         1 FMW       0.365400
     26 N5           6.9100     0.9140    -0.1710 na         1 FMW      -0.362000
     27 C21          6.6750     2.0900    -0.9820 c3         1 FMW       0.061900
     28 N            0.3710     0.0690     0.1350 nu         1 FMW      -0.920900
     29 C18         -6.1680     4.0780    -0.0590 c3         1 FMW      -0.141400
     30 N4          -4.4380    -0.3040    -0.1100 nu         1 FMW      -0.918100
     31 C17         -7.2200    -2.8460    -0.2860 c3         1 FMW      -0.085767
     32 C16         -4.8830    -3.0860    -1.1080 c3         1 FMW      -0.085767
     33 H1          -6.1450    -0.6290    -1.2760 h1         1 FMW       0.052200
     34 H2          -6.4330    -0.3990     0.4390 h1         1 FMW       0.052200
     35 H3          -0.9590     4.2410     0.2200 h4         1 FMW       0.027100
     36 H4          -3.5300     4.7990     0.1090 ha         1 FMW       0.124000
     37 H5          -5.9320    -2.2480     2.0880 hc         1 FMW       0.036256
     38 H6          -5.4180    -3.8290     1.4980 hc         1 FMW       0.036256
     39 H7          -4.2820    -2.4880     1.5170 hc         1 FMW       0.036256
     40 H8           4.3800    -2.0090     0.2540 ha         1 FMW       0.140000
     41 H9           4.3940     2.2700     0.3650 ha         1 FMW       0.113000
     42 H10          1.9720     2.2950     0.2500 ha         1 FMW       0.153000
     43 H11          0.5640    -4.4100     1.0260 hc         1 FMW       0.048033
     44 H12          0.6030    -4.4040    -0.7450 hc         1 FMW       0.048033
     45 H13          1.6660    -5.4790     0.1610 hc         1 FMW       0.048033
     46 H14          2.9140    -3.5500     1.0850 h1         1 FMW       0.040700
     47 H15          2.9660    -3.5530    -0.6820 h1         1 FMW       0.040700
     48 H16          9.0510     0.8790    -0.1360 h5         1 FMW       0.061100
     49 H17          6.4550     2.9580    -0.3630 h1         1 FMW       0.057033
     50 H18          7.5660     2.2950    -1.5680 h1         1 FMW       0.057033
     51 H19          5.8450     1.9160    -1.6630 h1         1 FMW       0.057033
     52 H20          0.0100    -0.8730     0.0890 hn         1 FMW       0.527000
     53 H21         -6.8300     3.8560     0.7800 hc         1 FMW       0.049367
     54 H22         -5.9070     5.1330    -0.0160 hc         1 FMW       0.049367
     55 H23         -6.7440     3.9060    -0.9710 hc         1 FMW       0.049367
     56 H24         -3.6270    -0.8990    -0.1820 hn         1 FMW       0.517000
     57 H25         -7.5740    -2.6120    -1.2920 hc         1 FMW       0.036256
     58 H26         -7.3060    -3.9250    -0.1480 hc         1 FMW       0.036256
     59 H27         -7.8960    -2.3660     0.4260 hc         1 FMW       0.036256
     60 H28         -3.8240    -2.8500    -0.9790 hc         1 FMW       0.036256
     61 H29         -4.9760    -4.1690    -1.0180 hc         1 FMW       0.036256
     62 H30         -5.1630    -2.8100    -2.1270 hc         1 FMW       0.036256
     63 O            1.6890    -2.1620     0.1620 os         1 FMW      -0.373100
@<TRIPOS>BOND
     1     1     9 ar  
     2     1    14 ar  
     3     1    30 1   
     4     2     7 1   
     5     2    30 1   
     6     2    33 1   
     7     2    34 1   
     8     3     4 ar  
     9     3     5 ar  
    10     3    14 ar  
    11     4    16 ar  
    12     4    35 1   
    13     5     6 ar  
    14     5    36 1   
    15     6     9 ar  
    16     6    29 1   
    17     7     8 1   
    18     7    31 1   
    19     7    32 1   
    20     8    37 1   
    21     8    38 1   
    22     8    39 1   
    23    10    11 ar  
    24    10    21 ar  
    25    10    40 1   
    26    11    12 ar  
    27    11    22 1   
    28    12    13 ar  
    29    12    41 1   
    30    13    17 ar  
    31    13    42 1   
    32    14    15 ar  
    33    15    18 ar  
    34    16    18 ar  
    35    17    21 ar  
    36    17    28 1   
    37    18    28 1   
    38    19    20 1   
    39    19    43 1   
    40    19    44 1   
    41    19    45 1   
    42    20    46 1   
    43    20    47 1   
    44    20    63 1   
    45    21    63 1   
    46    22    23 2   
    47    22    26 1   
    48    23    24 1   
    49    24    25 2   
    50    25    26 1   
    51    25    48 1   
    52    26    27 1   
    53    27    49 1   
    54    27    50 1   
    55    27    51 1   
    56    28    52 1   
    57    29    53 1   
    58    29    54 1   
    59    29    55 1   
    60    30    56 1   
    61    31    57 1   
    62    31    58 1   
    63    31    59 1   
    64    32    60 1   
    65    32    61 1   
    66    32    62 1   
@<TRIPOS>SUBSTRUCTURE
     1 FMW         1 TEMP              0 ****  ****    0 ROOT
