@<TRIPOS>MOLECULE
FMX
   46    49     1     0     0
SMALL
No Charge or Current Charge


@<TRIPOS>ATOM
      1 O6           1.6100     1.3050     1.7500 o          1 FMX      -0.443000
      2 C6           0.7740     0.4080     1.7520 c          1 FMX       0.564000
      3 N2          -0.2600     0.2320     2.6630 n          1 FMX      -0.269800
      4 N1          -0.4600     1.1260     3.8000 nu         1 FMX      -0.658200
      5 C21         -0.1400     0.6620     5.0860 ca         1 FMX       0.268000
      6 C22         -0.7580     1.2610     6.1980 ca         1 FMX      -0.143500
      7 C23         -0.4600     0.8260     7.5020 ca         1 FMX      -0.078500
      8 C24          0.4660    -0.2110     7.7000 ca         1 FMX      -0.133000
      9 C25          1.0960    -0.8100     6.5970 ca         1 FMX      -0.078500
     10 C26          0.7950    -0.3730     5.2940 ca         1 FMX      -0.143500
     11 C3          -1.0890    -0.8630     2.4020 c          1 FMX       0.686100
     12 O4          -0.6340    -1.4780     1.2660 os         1 FMX      -0.406100
     13 O3          -2.0600    -1.2130     3.0560 o          1 FMX      -0.480000
     14 C5           0.5660    -0.7950     0.7880 c5         1 FMX       0.154300
     15 C7           1.7410    -1.7940     0.9480 c3         1 FMX      -0.089100
     16 C8           0.3030    -0.3010    -0.6500 ca         1 FMX      -0.114300
     17 C9          -0.9100     0.3620    -0.9480 ca         1 FMX      -0.069500
     18 C10         -1.1760     0.8350    -2.2440 ca         1 FMX      -0.127500
     19 C11         -0.2390     0.6500    -3.2690 ca         1 FMX       0.123100
     20 C12          0.9820     0.0120    -2.9870 ca         1 FMX      -0.127500
     21 C13          1.2500    -0.4620    -1.6910 ca         1 FMX      -0.069500
     22 O14         -0.5180     1.1340    -4.5270 os         1 FMX      -0.257200
     23 C15         -0.1570     0.4740    -5.6800 ca         1 FMX       0.130100
     24 C16         -0.2390    -0.9290    -5.7720 ca         1 FMX      -0.155500
     25 C17          0.1230    -1.5780    -6.9660 ca         1 FMX      -0.080000
     26 C18          0.5590    -0.8230    -8.0700 ca         1 FMX      -0.137000
     27 C19          0.6280     0.5780    -7.9840 ca         1 FMX      -0.080000
     28 C20          0.2660     1.2260    -6.7890 ca         1 FMX      -0.155500
     29 HN11        -1.2200     1.8090     3.6980 hn         1 FMX       0.481000
     30 H221        -1.4750     2.0640     6.0540 ha         1 FMX       0.114000
     31 H231        -0.9460     1.2930     8.3560 ha         1 FMX       0.113500
     32 H241         0.6980    -0.5480     8.7080 ha         1 FMX       0.116000
     33 H251         1.8170    -1.6100     6.7500 ha         1 FMX       0.113500
     34 H261         1.2990    -0.8410     4.4540 ha         1 FMX       0.114000
     35 H71          1.7910    -2.1840     1.9710 hc         1 FMX       0.063033
     36 H72          1.6270    -2.6500     0.2720 hc         1 FMX       0.063033
     37 H73          2.7050    -1.3170     0.7350 hc         1 FMX       0.063033
     38 H91         -1.6570     0.5160    -0.1720 ha         1 FMX       0.130000
     39 H101        -2.1140     1.3420    -2.4560 ha         1 FMX       0.134500
     40 H121         1.7260    -0.1140    -3.7690 ha         1 FMX       0.134500
     41 H131         2.2060    -0.9470    -1.5120 ha         1 FMX       0.130000
     42 H161        -0.5850    -1.5160    -4.9250 ha         1 FMX       0.126500
     43 H171         0.0630    -2.6620    -7.0370 ha         1 FMX       0.114500
     44 H181         0.8380    -1.3250    -8.9940 ha         1 FMX       0.117000
     45 H191         0.9600     1.1610    -8.8400 ha         1 FMX       0.114500
     46 H201         0.3160     2.3090    -6.7200 ha         1 FMX       0.126500
@<TRIPOS>BOND
     1     1     2 2   
     2     2     3 1   
     3     2    14 1   
     4     3     4 1   
     5     3    11 1   
     6     4     5 1   
     7     4    29 1   
     8     5     6 ar  
     9     5    10 ar  
    10     6     7 ar  
    11     6    30 1   
    12     7     8 ar  
    13     7    31 1   
    14     8     9 ar  
    15     8    32 1   
    16     9    10 ar  
    17     9    33 1   
    18    10    34 1   
    19    11    12 1   
    20    11    13 2   
    21    12    14 1   
    22    14    15 1   
    23    14    16 1   
    24    15    35 1   
    25    15    36 1   
    26    15    37 1   
    27    16    17 ar  
    28    16    21 ar  
    29    17    18 ar  
    30    17    38 1   
    31    18    19 ar  
    32    18    39 1   
    33    19    20 ar  
    34    19    22 1   
    35    20    21 ar  
    36    20    40 1   
    37    21    41 1   
    38    22    23 1   
    39    23    24 ar  
    40    23    28 ar  
    41    24    25 ar  
    42    24    42 1   
    43    25    26 ar  
    44    25    43 1   
    45    26    27 ar  
    46    26    44 1   
    47    27    28 ar  
    48    27    45 1   
    49    28    46 1   
@<TRIPOS>SUBSTRUCTURE
     1 FMX         1 TEMP              0 ****  ****    0 ROOT
