@<TRIPOS>MOLECULE
FMX
   46    49     1     0     0
SMALL
bcc


@<TRIPOS>ATOM
      1 O6           1.8030     0.8800     1.6180 o          1 FMX      -0.518500
      2 C6           0.8200     0.2020     1.6930 c          1 FMX       0.706500
      3 N2          -0.1620     0.2660     2.6490 n          1 FMX      -0.403800
      4 N1          -0.1700     1.1680     3.6650 nu         1 FMX      -0.464600
      5 C21          0.0330     0.6940     4.9670 ca         1 FMX       0.129600
      6 C22         -0.4100     1.4770     6.0320 ca         1 FMX      -0.161500
      7 C23         -0.1760     1.0730     7.3350 ca         1 FMX      -0.096500
      8 C24          0.4930    -0.1170     7.5990 ca         1 FMX      -0.151000
      9 C25          0.9300    -0.8930     6.5350 ca         1 FMX      -0.096500
     10 C26          0.7090    -0.4960     5.2230 ca         1 FMX      -0.161500
     11 C3          -1.1700    -0.6640     2.4250 c          1 FMX       0.828600
     12 O4          -0.8540    -1.3660     1.3410 os         1 FMX      -0.382900
     13 O3          -2.1520    -0.8210     3.0820 o          1 FMX      -0.555500
     14 C5           0.3890    -0.9310     0.7690 c5         1 FMX       0.131100
     15 C7           1.3810    -2.0820     0.8290 c3         1 FMX      -0.089100
     16 C8           0.1540    -0.4000    -0.6290 ca         1 FMX      -0.114300
     17 C9          -1.1260    -0.1940    -1.1280 ca         1 FMX      -0.087500
     18 C10         -1.3120     0.3170    -2.4060 ca         1 FMX      -0.145500
     19 C11         -0.2140     0.6410    -3.1830 ca         1 FMX       0.123100
     20 C12          1.0720     0.4450    -2.6990 ca         1 FMX      -0.145500
     21 C13          1.2500    -0.0740    -1.4280 ca         1 FMX      -0.087500
     22 O14         -0.4190     1.2060    -4.4120 os         1 FMX      -0.257200
     23 C15         -0.0560     0.5280    -5.5390 ca         1 FMX       0.130100
     24 C16          0.1650    -0.8440    -5.5670 ca         1 FMX      -0.173500
     25 C17          0.4990    -1.4520    -6.7710 ca         1 FMX      -0.098000
     26 C18          0.6130    -0.7100    -7.9380 ca         1 FMX      -0.155000
     27 C19          0.3860     0.6610    -7.8940 ca         1 FMX      -0.098000
     28 C20          0.0550     1.2840    -6.7010 ca         1 FMX      -0.173500
     29 HN11        -0.8900     1.8680     3.5560 hn         1 FMX       0.425800
     30 H221        -0.9400     2.4020     5.8360 ha         1 FMX       0.132000
     31 H231        -0.5260     1.6920     8.1510 ha         1 FMX       0.131500
     32 H241         0.6680    -0.4330     8.6180 ha         1 FMX       0.134000
     33 H251         1.4560    -1.8200     6.7210 ha         1 FMX       0.131500
     34 H261         1.0730    -1.1200     4.4170 ha         1 FMX       0.132000
     35 H71          1.5020    -2.4390     1.8520 hc         1 FMX       0.063033
     36 H72          1.0310    -2.9060     0.2090 hc         1 FMX       0.063033
     37 H73          2.3570    -1.7680     0.4670 hc         1 FMX       0.063033
     38 H91         -2.0030    -0.4360    -0.5440 ha         1 FMX       0.148000
     39 H101        -2.3130     0.4690    -2.7880 ha         1 FMX       0.152500
     40 H121         1.9330     0.7010    -3.3030 ha         1 FMX       0.152500
     41 H131         2.2600    -0.2120    -1.0690 ha         1 FMX       0.148000
     42 H161         0.0770    -1.4480    -4.6730 ha         1 FMX       0.144500
     43 H171         0.6660    -2.5210    -6.7900 ha         1 FMX       0.132500
     44 H181         0.8740    -1.1920    -8.8700 ha         1 FMX       0.135000
     45 H191         0.4710     1.2550    -8.7950 ha         1 FMX       0.132500
     46 H201        -0.1180     2.3520    -6.6660 ha         1 FMX       0.144500
@<TRIPOS>BOND
     1     1     2 2   
     2     2     3 1   
     3     2    14 1   
     4     3     4 1   
     5     3    11 1   
     6     4     5 1   
     7     4    29 1   
     8     5     6 ar  
     9     5    10 ar  
    10     6     7 ar  
    11     6    30 1   
    12     7     8 ar  
    13     7    31 1   
    14     8     9 ar  
    15     8    32 1   
    16     9    10 ar  
    17     9    33 1   
    18    10    34 1   
    19    11    12 1   
    20    11    13 2   
    21    12    14 1   
    22    14    15 1   
    23    14    16 1   
    24    15    35 1   
    25    15    36 1   
    26    15    37 1   
    27    16    17 ar  
    28    16    21 ar  
    29    17    18 ar  
    30    17    38 1   
    31    18    19 ar  
    32    18    39 1   
    33    19    20 ar  
    34    19    22 1   
    35    20    21 ar  
    36    20    40 1   
    37    21    41 1   
    38    22    23 1   
    39    23    24 ar  
    40    23    28 ar  
    41    24    25 ar  
    42    24    42 1   
    43    25    26 ar  
    44    25    43 1   
    45    26    27 ar  
    46    26    44 1   
    47    27    28 ar  
    48    27    45 1   
    49    28    46 1   
@<TRIPOS>SUBSTRUCTURE
     1 FMX         1 TEMP              0 ****  ****    0 ROOT
