@<TRIPOS>MOLECULE
FMZ
   54    56     1     0     0
SMALL
abcg2


@<TRIPOS>ATOM
      1 C14         -1.2730    -1.9320     0.2170 c3         1 FMZ      -0.005300
      2 C6          -4.2510     0.3760    -0.6600 c5         1 FMZ       0.159000
      3 C12         -4.3660     0.0370     0.8430 c5         1 FMZ       0.024500
      4 C13         -2.0950    -0.6730     0.5390 c5         1 FMZ       0.333500
      5 N1           0.0550    -1.6000    -0.2180 ns         1 FMZ      -0.480900
      6 C3           1.0220    -1.2190     0.6300 c          1 FMZ       0.613100
      7 N3          -3.3950    -1.0220     1.0640 n7         1 FMZ      -0.878400
      8 C2          -4.2370     1.2550     1.7920 c          1 FMZ       0.704000
      9 O2          -3.1570     1.4110     2.3930 o          1 FMZ      -0.719500
     10 C1          -4.7380     1.7620    -1.0610 c3         1 FMZ      -0.069600
     11 S1          -2.4360     0.2850    -0.9760 ss         1 FMZ      -0.531000
     12 C15         -1.9720    -2.7760    -0.8150 c          1 FMZ       0.593900
     13 O4          -1.4440    -3.2090    -1.8070 o          1 FMZ      -0.549100
     14 O3           0.9040    -1.2520     1.8450 o          1 FMZ      -0.602100
     15 CAK          2.2710    -0.6690    -0.0490 c3         1 FMZ       0.138800
     16 NAL          3.3720    -0.7360     0.8930 n7         1 FMZ      -0.589400
     17 NAI          4.5630    -0.2780     0.3780 n          1 FMZ      -0.277200
     18 CAU          4.9760     1.1150     0.4810 c5         1 FMZ       0.045000
     19 CAV          6.4170     1.0350    -0.0110 c5         1 FMZ       0.078000
     20 NAO          6.7690    -0.3240     0.3450 ns         1 FMZ      -0.504900
     21 CAM          5.6630    -1.1110     0.4460 c          1 FMZ       0.595000
     22 OAR          5.6370    -2.3200     0.5710 o          1 FMZ      -0.542000
     23 CAS          1.9580     0.7150    -0.5860 ca         1 FMZ      -0.130300
     24 CAZ          1.4520     1.7030     0.2570 ca         1 FMZ      -0.093000
     25 CBC          1.2130     2.9800    -0.2250 ca         1 FMZ      -0.109000
     26 CBD          1.4800     3.2870    -1.5540 ca         1 FMZ      -0.105000
     27 CBB          1.9790     2.3070    -2.4000 ca         1 FMZ      -0.109000
     28 CBA          2.2160     1.0260    -1.9150 ca         1 FMZ      -0.093000
     29 H14         -1.2190    -2.5380     1.1310 h1         1 FMZ       0.092700
     30 H12         -5.3670    -0.3800     1.0020 h1         1 FMZ       0.066700
     31 H13         -1.5110    -0.0390     1.2100 h2         1 FMZ       0.103700
     32 HN1          0.2280    -1.5560    -1.2120 hn         1 FMZ       0.333500
     33 HN3         -3.3090    -1.2170     2.0550 hn         1 FMZ       0.429000
     34 H16         -4.7740    -0.5530    -2.5550 hc         1 FMZ       0.035367
     35 H16A        -4.7160    -1.6850    -1.2000 hc         1 FMZ       0.035367
     36 H16B        -6.0660    -0.5610    -1.3550 hc         1 FMZ       0.035367
     37 H1          -4.1920     2.5580    -0.5600 hc         1 FMZ       0.035367
     38 H1A         -4.6210     1.8970    -2.1370 hc         1 FMZ       0.035367
     39 H1B         -5.7960     1.8730    -0.8250 hc         1 FMZ       0.035367
     40 H15         -3.0230    -2.9880    -0.5720 h4         1 FMZ       0.021200
     41 HAK          2.5280    -1.3150    -0.8940 h1         1 FMZ       0.087700
     42 HNAL         3.1520    -0.2770     1.7700 hn         1 FMZ       0.440000
     43 HAU          4.3670     1.7730    -0.1330 h1         1 FMZ       0.059700
     44 HAUA         4.9200     1.4580     1.5220 h1         1 FMZ       0.059700
     45 HAV          6.4700     1.1960    -1.0920 h1         1 FMZ       0.044700
     46 HAVA         7.0620     1.7640     0.4770 h1         1 FMZ       0.044700
     47 HNAO         7.6300    -0.7320     0.0180 hn         1 FMZ       0.318500
     48 HAZ          1.2440     1.4810     1.2970 ha         1 FMZ       0.121500
     49 HBC          0.8200     3.7400     0.4380 ha         1 FMZ       0.114000
     50 HBD          1.2960     4.2860    -1.9280 ha         1 FMZ       0.108000
     51 HBB          2.1900     2.5380    -3.4360 ha         1 FMZ       0.114000
     52 HBA          2.6110     0.2640    -2.5760 ha         1 FMZ       0.121500
     53 O1          -5.2550     1.9680     1.8900 o          1 FMZ      -0.719500
     54 C16         -4.9870    -0.6720    -1.4920 c3         1 FMZ      -0.069600
@<TRIPOS>BOND
     1     1     4 1   
     2     1     5 1   
     3     1    12 1   
     4     1    29 1   
     5     2     3 1   
     6     2    10 1   
     7     2    11 1   
     8     2    54 1   
     9     3     7 1   
    10     3     8 1   
    11     3    30 1   
    12     4     7 1   
    13     4    11 1   
    14     4    31 1   
    15     5     6 1   
    16     5    32 1   
    17     6    14 2   
    18     6    15 1   
    19     7    33 1   
    20     8     9 1   
    21     8    53 1   
    22    10    37 1   
    23    10    38 1   
    24    10    39 1   
    25    12    13 2   
    26    12    40 1   
    27    15    16 1   
    28    15    23 1   
    29    15    41 1   
    30    16    17 1   
    31    16    42 1   
    32    17    18 1   
    33    17    21 1   
    34    18    19 1   
    35    18    43 1   
    36    18    44 1   
    37    19    20 1   
    38    19    45 1   
    39    19    46 1   
    40    20    21 1   
    41    20    47 1   
    42    21    22 2   
    43    23    24 ar  
    44    23    28 ar  
    45    24    25 ar  
    46    24    48 1   
    47    25    26 ar  
    48    25    49 1   
    49    26    27 ar  
    50    26    50 1   
    51    27    28 ar  
    52    27    51 1   
    53    28    52 1   
    54    34    54 1   
    55    35    54 1   
    56    36    54 1   
@<TRIPOS>SUBSTRUCTURE
     1 FMZ         1 TEMP              0 ****  ****    0 ROOT
