@<TRIPOS>MOLECULE
FMZ
   54    56     1     0     0
SMALL
No Charge or Current Charge


@<TRIPOS>ATOM
      1 C14         -1.2980    -2.3130     0.2300 c3         1 FMZ      -0.005300
      2 C6          -4.1090     0.5460    -0.4620 c5         1 FMZ       0.159000
      3 C12         -4.6110    -0.4420     0.6730 c5         1 FMZ       0.024500
      4 C13         -2.3390    -1.1760     0.3960 c5         1 FMZ       0.333500
      5 N1           0.0760    -1.8260    -0.0710 ns         1 FMZ      -0.480900
      6 C3           0.8310    -1.0260     0.7650 c          1 FMZ       0.613100
      7 N3          -3.6980    -1.6600     0.6810 n7         1 FMZ      -0.878400
      8 C2          -4.7770     0.3220     2.0530 c          1 FMZ       0.704000
      9 O2          -3.9140     0.2040     2.9150 o          1 FMZ      -0.719500
     10 C1          -3.6380     1.9520     0.0020 c3         1 FMZ      -0.069600
     11 S1          -2.6320    -0.3030    -1.1950 ss         1 FMZ      -0.531000
     12 C15         -1.7600    -3.3340    -0.8350 c          1 FMZ       0.593900
     13 O4          -1.0610    -3.6990    -1.7810 o          1 FMZ      -0.549100
     14 O3           0.4390    -0.7280     1.8890 o          1 FMZ      -0.602100
     15 CAK          2.1830    -0.5220     0.1630 c3         1 FMZ       0.138800
     16 NAL          3.2050    -0.2140     1.2100 n7         1 FMZ      -0.589400
     17 NAI          4.5650     0.0690     0.7600 n          1 FMZ      -0.277200
     18 CAU          4.8950     1.4350     0.3210 c5         1 FMZ       0.045000
     19 CAV          6.4470     1.3270     0.0760 c5         1 FMZ       0.078000
     20 NAO          6.7580    -0.0710     0.4190 ns         1 FMZ      -0.504900
     21 CAM          5.6700    -0.7750     0.8240 c          1 FMZ       0.595000
     22 OAR          5.6800    -1.9410     1.1850 o          1 FMZ      -0.542000
     23 CAS          1.9330     0.6800    -0.7520 ca         1 FMZ      -0.130300
     24 CAZ          1.3230     1.8510    -0.2530 ca         1 FMZ      -0.093000
     25 CBC          1.0940     2.9490    -1.1010 ca         1 FMZ      -0.109000
     26 CBD          1.4720     2.8860    -2.4520 ca         1 FMZ      -0.105000
     27 CBB          2.0780     1.7240    -2.9560 ca         1 FMZ      -0.109000
     28 CBA          2.3070     0.6240    -2.1110 ca         1 FMZ      -0.093000
     29 H14         -1.2620    -2.8620     1.1790 h1         1 FMZ       0.092700
     30 H12         -5.6260    -0.7870     0.4330 h1         1 FMZ       0.066700
     31 H13         -1.9960    -0.4570     1.1550 h2         1 FMZ       0.103700
     32 HN1          0.4570    -2.0140    -0.9930 hn         1 FMZ       0.333500
     33 HN3         -3.7160    -2.0790     1.6210 hn         1 FMZ       0.429000
     34 H16         -4.7750     1.3270    -2.4080 hc         1 FMZ       0.035367
     35 H16A        -5.4650    -0.2490    -1.9960 hc         1 FMZ       0.035367
     36 H16B        -6.0660     1.2140    -1.2000 hc         1 FMZ       0.035367
     37 H1          -2.8550     1.8840     0.7670 hc         1 FMZ       0.035367
     38 H1A         -3.2210     2.5240    -0.8350 hc         1 FMZ       0.035367
     39 H1B         -4.4650     2.5400     0.4160 hc         1 FMZ       0.035367
     40 H15         -2.7800    -3.7550    -0.6920 h4         1 FMZ       0.021200
     41 HAK          2.5570    -1.3510    -0.4520 h1         1 FMZ       0.087700
     42 HNAL         2.8690     0.5030     1.8690 hn         1 FMZ       0.440000
     43 HAU          4.3700     1.7100    -0.6020 h1         1 FMZ       0.059700
     44 HAUA         4.6580     2.1770     1.0950 h1         1 FMZ       0.059700
     45 HAV          6.6990     1.5520    -0.9690 h1         1 FMZ       0.044700
     46 HAVA         6.9980     2.0310     0.7140 h1         1 FMZ       0.044700
     47 HNAO         7.6680    -0.5160     0.4060 hn         1 FMZ       0.318500
     48 HAZ          1.0250     1.9150     0.7910 ha         1 FMZ       0.121500
     49 HBC          0.6230     3.8480    -0.7100 ha         1 FMZ       0.114000
     50 HBD          1.2940     3.7360    -3.1070 ha         1 FMZ       0.108000
     51 HBB          2.3710     1.6740    -4.0030 ha         1 FMZ       0.114000
     52 HBA          2.7810    -0.2680    -2.5140 ha         1 FMZ       0.121500
     53 O1          -5.8330     0.8970     2.2820 o          1 FMZ      -0.719500
     54 C16         -5.1640     0.7210    -1.5810 c3         1 FMZ      -0.069600
@<TRIPOS>BOND
     1     1     4 1   
     2     1     5 1   
     3     1    12 1   
     4     1    29 1   
     5     2     3 1   
     6     2    10 1   
     7     2    11 1   
     8     2    54 1   
     9     3     7 1   
    10     3     8 1   
    11     3    30 1   
    12     4     7 1   
    13     4    11 1   
    14     4    31 1   
    15     5     6 1   
    16     5    32 1   
    17     6    14 2   
    18     6    15 1   
    19     7    33 1   
    20     8     9 1   
    21     8    53 1   
    22    10    37 1   
    23    10    38 1   
    24    10    39 1   
    25    12    13 2   
    26    12    40 1   
    27    15    16 1   
    28    15    23 1   
    29    15    41 1   
    30    16    17 1   
    31    16    42 1   
    32    17    18 1   
    33    17    21 1   
    34    18    19 1   
    35    18    43 1   
    36    18    44 1   
    37    19    20 1   
    38    19    45 1   
    39    19    46 1   
    40    20    21 1   
    41    20    47 1   
    42    21    22 2   
    43    23    24 ar  
    44    23    28 ar  
    45    24    25 ar  
    46    24    48 1   
    47    25    26 ar  
    48    25    49 1   
    49    26    27 ar  
    50    26    50 1   
    51    27    28 ar  
    52    27    51 1   
    53    28    52 1   
    54    34    54 1   
    55    35    54 1   
    56    36    54 1   
@<TRIPOS>SUBSTRUCTURE
     1 FMZ         1 TEMP              0 ****  ****    0 ROOT
