@<TRIPOS>MOLECULE
FN1
   26    27     1     0     0
SMALL
No Charge or Current Charge


@<TRIPOS>ATOM
      1 F13         -3.6210    -1.3570    -0.4160 f          1 FN1      -0.171000
      2 C4          -2.5740    -0.5190    -0.2380 ca         1 FN1       0.113000
      3 C3          -1.2740    -1.0330    -0.1150 ca         1 FN1      -0.117000
      4 C2          -0.2070    -0.1290     0.0710 ca         1 FN1      -0.102300
      5 C1          -0.5000     1.2540     0.1190 ca         1 FN1       0.341900
      6 N1          -1.7560     1.7580     0.0030 nb         1 FN1      -0.649000
      7 C5          -2.7710     0.8750    -0.1730 ca         1 FN1       0.301900
      8 C6           1.2260    -0.6360     0.2060 c5         1 FN1       0.216800
      9 C7           1.6910    -0.3930     1.6780 c5         1 FN1      -0.073400
     10 C8           3.1460     0.1520     1.5250 c5         1 FN1      -0.081400
     11 C9           3.4810    -0.1510     0.0450 c5         1 FN1       0.159800
     12 N2           2.1850     0.1610    -0.5860 n3         1 FN1      -0.717600
     13 C10          2.1260    -0.0440    -2.0480 c3         1 FN1       0.153100
     14 H3          -1.1000    -2.1050    -0.1620 ha         1 FN1       0.134000
     15 H1           0.2960     1.9850     0.2600 h4         1 FN1       0.041100
     16 H5          -3.7720     1.2970    -0.2650 h4         1 FN1       0.035100
     17 H6           1.2970    -1.7030    -0.0510 h1         1 FN1       0.032700
     18 H72          1.0640     0.3240     2.2200 hc         1 FN1       0.053200
     19 H71          1.6660    -1.3280     2.2490 hc         1 FN1       0.053200
     20 H81          3.1810     1.2310     1.7160 hc         1 FN1       0.048700
     21 H82          3.8520    -0.3230     2.2160 hc         1 FN1       0.048700
     22 H91          4.2980     0.4800    -0.3320 h1         1 FN1       0.038200
     23 H92          3.7610    -1.2050    -0.1000 h1         1 FN1       0.038200
     24 H103         1.1350     0.2220    -2.4380 h1         1 FN1       0.033700
     25 H102         2.8710     0.5830    -2.5550 h1         1 FN1       0.033700
     26 H101         2.3270    -1.0930    -2.3040 h1         1 FN1       0.033700
@<TRIPOS>BOND
     1     1     2 1   
     2     2     3 ar  
     3     2     7 ar  
     4     3     4 ar  
     5     3    14 1   
     6     4     5 ar  
     7     4     8 1   
     8     5     6 ar  
     9     5    15 1   
    10     6     7 ar  
    11     7    16 1   
    12     8     9 1   
    13     8    12 1   
    14     8    17 1   
    15     9    10 1   
    16     9    18 1   
    17     9    19 1   
    18    10    11 1   
    19    10    20 1   
    20    10    21 1   
    21    11    12 1   
    22    11    22 1   
    23    11    23 1   
    24    12    13 1   
    25    13    24 1   
    26    13    25 1   
    27    13    26 1   
@<TRIPOS>SUBSTRUCTURE
     1 FN1         1 TEMP              0 ****  ****    0 ROOT
