@<TRIPOS>MOLECULE
FN1
   26    27     1     0     0
SMALL
abcg2


@<TRIPOS>ATOM
      1 F13         -3.5470    -1.4170    -0.2750 f          1 FN1      -0.171000
      2 C4          -2.5270    -0.5540    -0.1950 ca         1 FN1       0.113000
      3 C3          -1.2400    -1.0260    -0.0360 ca         1 FN1      -0.117000
      4 C2          -0.2130    -0.0970     0.0440 ca         1 FN1      -0.102300
      5 C1          -0.5520     1.2520    -0.0490 ca         1 FN1       0.341900
      6 N1          -1.7930     1.6890    -0.2070 nb         1 FN1      -0.649000
      7 C5          -2.7780     0.8020    -0.2780 ca         1 FN1       0.301900
      8 C6           1.2110    -0.5260     0.2590 c5         1 FN1       0.216800
      9 C7           1.7040    -0.2920     1.6940 c5         1 FN1      -0.073400
     10 C8           3.2240    -0.1000     1.5440 c5         1 FN1      -0.081400
     11 C9           3.4570    -0.0600     0.0290 c5         1 FN1       0.159800
     12 N2           2.1520     0.2430    -0.5330 n3         1 FN1      -0.717600
     13 C10          2.0710     0.0070    -1.9530 c3         1 FN1       0.153100
     14 H3          -1.0430    -2.0900     0.0200 ha         1 FN1       0.134000
     15 H1           0.2280     2.0030    -0.0020 h4         1 FN1       0.041100
     16 H5          -3.7890     1.1710    -0.4080 h4         1 FN1       0.035100
     17 H6           1.2860    -1.6040     0.0260 h1         1 FN1       0.032700
     18 H72          1.2410     0.6060     2.1050 hc         1 FN1       0.053200
     19 H71          1.4360    -1.1230     2.3460 hc         1 FN1       0.053200
     20 H81          3.5460     0.8250     2.0220 hc         1 FN1       0.048700
     21 H82          3.7880    -0.9120     2.0010 hc         1 FN1       0.048700
     22 H91          4.1910     0.6880    -0.2760 h1         1 FN1       0.038200
     23 H92          3.8240    -1.0380    -0.3210 h1         1 FN1       0.038200
     24 H103         1.0850     0.2770    -2.3340 h1         1 FN1       0.033700
     25 H102         2.8040     0.6240    -2.4740 h1         1 FN1       0.033700
     26 H101         2.2610    -1.0440    -2.2240 h1         1 FN1       0.033700
@<TRIPOS>BOND
     1     1     2 1   
     2     2     3 ar  
     3     2     7 ar  
     4     3     4 ar  
     5     3    14 1   
     6     4     5 ar  
     7     4     8 1   
     8     5     6 ar  
     9     5    15 1   
    10     6     7 ar  
    11     7    16 1   
    12     8     9 1   
    13     8    12 1   
    14     8    17 1   
    15     9    10 1   
    16     9    18 1   
    17     9    19 1   
    18    10    11 1   
    19    10    20 1   
    20    10    21 1   
    21    11    12 1   
    22    11    22 1   
    23    11    23 1   
    24    12    13 1   
    25    13    24 1   
    26    13    25 1   
    27    13    26 1   
@<TRIPOS>SUBSTRUCTURE
     1 FN1         1 TEMP              0 ****  ****    0 ROOT
