@<TRIPOS>MOLECULE
FN5
   68    70     1     0     0
SMALL
No Charge or Current Charge


@<TRIPOS>ATOM
      1 P            9.6880     7.1250    -6.6590 p5         1 FN5       1.409800
      2 N1          15.4830     8.0180    -6.7710 n          1 FN5      -0.315000
      3 C2          16.4590     7.0800    -7.1670 c          1 FN5       0.722400
      4 O2          16.7280     6.0980    -6.4960 o          1 FN5      -0.569000
      5 N3          17.1310     7.2840    -8.3400 nc         1 FN5      -0.785100
      6 C4          16.8810     8.3210    -9.0590 cd         1 FN5       0.783500
      7 N4          17.5820     8.4120   -10.1680 nv         1 FN5      -1.046200
      8 C5          15.9370     9.3100    -8.7290 cd         1 FN5      -0.482600
      9 C6          15.2370     9.1530    -7.5550 cc         1 FN5       0.031600
     10 C1          14.7760     7.7270    -5.4830 c5         1 FN5       0.330700
     11 O2P         10.2730     6.1390    -7.7840 os         1 FN5      -0.648400
     12 C7          13.8360     8.8750    -4.9860 c5         1 FN5       0.139300
     13 O6          14.5070    10.0370    -4.4740 oh         1 FN5      -0.693000
     14 O1P          8.6590     6.4450    -5.8210 o          1 FN5      -0.805000
     15 C3          13.1390     8.0950    -3.8340 c5         1 FN5       0.113300
     16 O3          14.0020     8.0540    -2.6780 oh         1 FN5      -0.706000
     17 O3P          9.1660     8.3840    -7.2620 o          1 FN5      -0.805000
     18 C8          12.9510     6.6780    -4.5020 c5         1 FN5       0.127300
     19 O4          13.8430     6.6490    -5.6530 os         1 FN5      -0.461000
     20 C9          11.4990     6.3560    -4.9450 c3         1 FN5       0.214600
     21 O5          11.0330     7.3880    -5.8230 os         1 FN5      -0.619400
     22 HN4         18.0280     7.5430   -10.4260 hn         1 FN5       0.496000
     23 HN4A        17.1540     8.9290   -10.9240 hn         1 FN5       0.496000
     24 H5          15.7820    10.1680    -9.3720 ha         1 FN5       0.217000
     25 H6          14.4980     9.8540    -7.1770 h4         1 FN5       0.243000
     26 H1          15.5350     7.4770    -4.7290 h2         1 FN5       0.119700
     27 C10         10.8430     6.7280    -8.9560 c6         1 FN5       0.441300
     28 H2          13.0930     9.1440    -5.7500 h1         1 FN5       0.080700
     29 HO2         14.6720     9.8050    -3.5260 ho         1 FN5       0.503000
     30 H3          12.1730     8.5520    -3.5760 h1         1 FN5       0.059700
     31 HO3         13.4980     7.6270    -1.9450 ho         1 FN5       0.494000
     32 H4          13.2690     5.8880    -3.8080 h1         1 FN5       0.052700
     33 H7          11.4840     5.3780    -5.4430 h1         1 FN5       0.033200
     34 H5'A        10.8630     6.2940    -4.0530 h1         1 FN5       0.033200
     35 O9          10.9060     5.7080    -9.9710 os         1 FN5      -0.475000
     36 C11         11.8020     4.5820    -9.7100 c6         1 FN5       0.137300
     37 C12         13.2230     5.0520    -9.2210 c6         1 FN5       0.085700
     38 C13         13.4030     6.5820    -9.4440 c6         1 FN5       0.152300
     39 C14         12.2540     7.3840    -8.7530 c6         1 FN5       0.100300
     40 F1          12.2400     8.6910    -9.3020 f          1 FN5      -0.269000
     41 O10         13.5040     6.8910   -10.8480 oh         1 FN5      -0.668000
     42 N41         13.4580     4.7080    -7.7950 ns         1 FN5      -0.482900
     43 C15         13.6190     3.4390    -7.2900 c          1 FN5       0.604100
     44 O11         13.4690     2.4430    -7.9790 o          1 FN5      -0.657100
     45 C16         13.9920     3.3540    -5.8180 c3         1 FN5      -0.169100
     46 C17         11.8030     3.7780   -11.0670 c3         1 FN5       0.155300
     47 C18         12.4000     2.3230   -11.0840 c3         1 FN5       0.173300
     48 C19         13.9550     2.2570   -11.2250 c3         1 FN5       0.130600
     49 O12         14.3960     0.9230   -11.5450 oh         1 FN5      -0.717000
     50 O13         11.9470     1.5490    -9.9490 oh         1 FN5      -0.666000
     51 O14         10.4490     3.7420   -11.5600 oh         1 FN5      -0.729000
     52 H14         10.1620     7.5120    -9.3250 h2         1 FN5       0.101700
     53 H15         11.3410     3.9510    -8.9360 h1         1 FN5       0.090700
     54 H16         14.0040     4.5530    -9.8050 h1         1 FN5       0.084700
     55 H17         14.3430     6.8760    -8.9630 h1         1 FN5       0.048700
     56 H18         12.4840     7.4880    -7.6900 h1         1 FN5       0.089700
     57 H19         13.2550     7.8390   -10.9320 ho         1 FN5       0.464000
     58 H20         13.5990     5.4610    -7.1250 hn         1 FN5       0.345500
     59 H21         14.8130     4.0480    -5.6060 hc         1 FN5       0.062700
     60 H22         13.1690     3.7620    -5.2240 hc         1 FN5       0.062700
     61 H23         14.2250     2.3300    -5.5050 hc         1 FN5       0.062700
     62 H24         12.4020     4.3720   -11.7720 h1         1 FN5       0.047700
     63 H25         12.0130     1.8600   -12.0020 h1         1 FN5       0.088700
     64 H26         14.2650     2.9480   -12.0210 h1         1 FN5       0.027700
     65 H27         14.4360     2.5900   -10.2990 h1         1 FN5       0.027700
     66 H28         15.3810     0.9390   -11.5700 ho         1 FN5       0.492000
     67 H29         12.5430     1.8020    -9.1900 ho         1 FN5       0.470000
     68 H30         10.0530     4.5610   -11.1700 ho         1 FN5       0.523000
@<TRIPOS>BOND
     1     1    11 1   
     2     1    14 1   
     3     1    17 1   
     4     1    21 1   
     5     2     3 1   
     6     2     9 1   
     7     2    10 1   
     8     3     4 2   
     9     3     5 1   
    10     5     6 2   
    11     6     7 1   
    12     6     8 1   
    13     7    22 1   
    14     7    23 1   
    15     8     9 2   
    16     8    24 1   
    17     9    25 1   
    18    10    12 1   
    19    10    19 1   
    20    10    26 1   
    21    11    27 1   
    22    12    13 1   
    23    12    15 1   
    24    12    28 1   
    25    13    29 1   
    26    15    16 1   
    27    15    18 1   
    28    15    30 1   
    29    16    31 1   
    30    18    19 1   
    31    18    20 1   
    32    18    32 1   
    33    20    21 1   
    34    20    33 1   
    35    20    34 1   
    36    27    35 1   
    37    27    39 1   
    38    27    52 1   
    39    35    36 1   
    40    36    37 1   
    41    36    46 1   
    42    36    53 1   
    43    37    38 1   
    44    37    42 1   
    45    37    54 1   
    46    38    39 1   
    47    38    41 1   
    48    38    55 1   
    49    39    40 1   
    50    39    56 1   
    51    41    57 1   
    52    42    43 1   
    53    42    58 1   
    54    43    44 2   
    55    43    45 1   
    56    45    59 1   
    57    45    60 1   
    58    45    61 1   
    59    46    47 1   
    60    46    51 1   
    61    46    62 1   
    62    47    48 1   
    63    47    50 1   
    64    47    63 1   
    65    48    49 1   
    66    48    64 1   
    67    48    65 1   
    68    49    66 1   
    69    50    67 1   
    70    51    68 1   
@<TRIPOS>SUBSTRUCTURE
     1 FN5         1 TEMP              0 ****  ****    0 ROOT
