@<TRIPOS>MOLECULE
FN5
   68    70     1     0     0
SMALL
abcg2


@<TRIPOS>ATOM
      1 P           11.0500     7.1830    -6.6270 p5         1 FN5       1.409800
      2 N1          15.2970     9.3260    -6.7680 n          1 FN5      -0.315000
      3 C2          16.5260     9.4830    -7.4610 c          1 FN5       0.722400
      4 O2          17.5810     9.1820    -6.8980 o          1 FN5      -0.569000
      5 N3          16.4880     9.9680    -8.7260 nc         1 FN5      -0.785100
      6 C4          15.3310    10.2350    -9.3200 cd         1 FN5       0.783500
      7 N4          15.3610    10.7070   -10.5740 nv         1 FN5      -1.046200
      8 C5          14.0770    10.0300    -8.6680 cd         1 FN5      -0.482600
      9 C6          14.1160     9.5680    -7.4030 cc         1 FN5       0.031600
     10 C1          15.3230     8.8360    -5.4000 c5         1 FN5       0.330700
     11 O2P         11.8630     6.0920    -7.5480 os         1 FN5      -0.648400
     12 C7          14.3570     9.5320    -4.4430 c5         1 FN5       0.139300
     13 O6          14.9430    10.7360    -3.9940 oh         1 FN5      -0.693000
     14 O1P          9.9870     6.3920    -5.9480 o          1 FN5      -0.805000
     15 C3          14.1150     8.4490    -3.3870 c5         1 FN5       0.113300
     16 O3          15.1840     8.4830    -2.4490 oh         1 FN5      -0.706000
     17 O3P         10.7550     8.4020    -7.4290 o          1 FN5      -0.805000
     18 C8          14.1420     7.1660    -4.2300 c5         1 FN5       0.127300
     19 O4          14.9870     7.4520    -5.3660 os         1 FN5      -0.461000
     20 C9          12.7970     6.6550    -4.7060 c3         1 FN5       0.214600
     21 O5          12.1870     7.6280    -5.5540 os         1 FN5      -0.619400
     22 HN4         16.2440    10.8290   -11.0410 hn         1 FN5       0.496000
     23 HN4A        14.5120    10.9040   -11.0770 hn         1 FN5       0.496000
     24 H5          13.1380    10.2130    -9.1690 ha         1 FN5       0.217000
     25 H6          13.2150     9.3420    -6.8540 h4         1 FN5       0.243000
     26 H1          16.3440     8.9800    -5.0560 h2         1 FN5       0.119700
     27 C10         12.6880     6.4450    -8.6450 c6         1 FN5       0.441300
     28 H2          13.4020     9.7260    -4.9300 h1         1 FN5       0.080700
     29 HO2         14.2610    11.2720    -3.5720 ho         1 FN5       0.503000
     30 H3          13.1550     8.5800    -2.8810 h1         1 FN5       0.059700
     31 HO3         15.0280     7.7960    -1.7890 ho         1 FN5       0.494000
     32 H4          14.6080     6.3660    -3.6490 h1         1 FN5       0.052700
     33 H7          12.9490     5.7220    -5.2510 h1         1 FN5       0.033200
     34 H5'A        12.1570     6.4500    -3.8440 h1         1 FN5       0.033200
     35 O9          12.1850     5.8720    -9.8170 os         1 FN5      -0.475000
     36 C11         12.0050     4.4380    -9.7810 c6         1 FN5       0.137300
     37 C12         13.1360     3.7240    -9.0030 c6         1 FN5       0.085700
     38 C13         14.4090     4.5720    -8.9390 c6         1 FN5       0.152300
     39 C14         14.1130     5.9640    -8.3490 c6         1 FN5       0.100300
     40 F1          15.0260     6.8760    -8.9130 f          1 FN5      -0.269000
     41 O10         14.8940     4.6550   -10.2700 oh         1 FN5      -0.668000
     42 N41         12.7170     3.3160    -7.6730 ns         1 FN5      -0.482900
     43 C15         12.3230     2.0630    -7.3880 c          1 FN5       0.604100
     44 O11         12.3310     1.1540    -8.2310 o          1 FN5      -0.657100
     45 C16         11.8720     1.8140    -5.9730 c3         1 FN5      -0.169100
     46 C17         11.8650     4.0360   -11.2500 c3         1 FN5       0.155300
     47 C18         11.5410     2.5470   -11.5050 c3         1 FN5       0.173300
     48 C19         12.7650     1.7410   -11.9170 c3         1 FN5       0.130600
     49 O12         12.3220     0.4710   -12.3940 oh         1 FN5      -0.717000
     50 O13         10.8050     1.9320   -10.4540 oh         1 FN5      -0.666000
     51 O14         10.7830     4.7850   -11.8210 oh         1 FN5      -0.729000
     52 H14         12.6820     7.5200    -8.8070 h2         1 FN5       0.101700
     53 H15         11.0610     4.2260    -9.2780 h1         1 FN5       0.090700
     54 H16         13.4080     2.8090    -9.5180 h1         1 FN5       0.084700
     55 H17         15.1380     4.0640    -8.3020 h1         1 FN5       0.048700
     56 H18         14.2900     5.9870    -7.2770 h1         1 FN5       0.089700
     57 H19         15.5230     5.3880   -10.3170 ho         1 FN5       0.464000
     58 H20         12.5210     4.0400    -6.9980 hn         1 FN5       0.345500
     59 H21         12.5080     1.0430    -5.5360 hc         1 FN5       0.062700
     60 H22         11.9130     2.7090    -5.3540 hc         1 FN5       0.062700
     61 H23         10.8510     1.4310    -5.9940 hc         1 FN5       0.062700
     62 H24         12.7940     4.2980   -11.7650 h1         1 FN5       0.047700
     63 H25         10.8680     2.5510   -12.3660 h1         1 FN5       0.088700
     64 H26         13.2950     2.2870   -12.7040 h1         1 FN5       0.027700
     65 H27         13.4540     1.6070   -11.0770 h1         1 FN5       0.027700
     66 H28         13.1000    -0.0680   -12.5820 ho         1 FN5       0.492000
     67 H29         11.4120     1.6150    -9.7560 ho         1 FN5       0.470000
     68 H30         10.9310     5.7140   -11.5990 ho         1 FN5       0.523000
@<TRIPOS>BOND
     1     1    11 1   
     2     1    14 1   
     3     1    17 1   
     4     1    21 1   
     5     2     3 1   
     6     2     9 1   
     7     2    10 1   
     8     3     4 2   
     9     3     5 1   
    10     5     6 2   
    11     6     7 1   
    12     6     8 1   
    13     7    22 1   
    14     7    23 1   
    15     8     9 2   
    16     8    24 1   
    17     9    25 1   
    18    10    12 1   
    19    10    19 1   
    20    10    26 1   
    21    11    27 1   
    22    12    13 1   
    23    12    15 1   
    24    12    28 1   
    25    13    29 1   
    26    15    16 1   
    27    15    18 1   
    28    15    30 1   
    29    16    31 1   
    30    18    19 1   
    31    18    20 1   
    32    18    32 1   
    33    20    21 1   
    34    20    33 1   
    35    20    34 1   
    36    27    35 1   
    37    27    39 1   
    38    27    52 1   
    39    35    36 1   
    40    36    37 1   
    41    36    46 1   
    42    36    53 1   
    43    37    38 1   
    44    37    42 1   
    45    37    54 1   
    46    38    39 1   
    47    38    41 1   
    48    38    55 1   
    49    39    40 1   
    50    39    56 1   
    51    41    57 1   
    52    42    43 1   
    53    42    58 1   
    54    43    44 2   
    55    43    45 1   
    56    45    59 1   
    57    45    60 1   
    58    45    61 1   
    59    46    47 1   
    60    46    51 1   
    61    46    62 1   
    62    47    48 1   
    63    47    50 1   
    64    47    63 1   
    65    48    49 1   
    66    48    64 1   
    67    48    65 1   
    68    49    66 1   
    69    50    67 1   
    70    51    68 1   
@<TRIPOS>SUBSTRUCTURE
     1 FN5         1 TEMP              0 ****  ****    0 ROOT
