@<TRIPOS>MOLECULE
FN6
   32    32     1     0     0
SMALL
No Charge or Current Charge


@<TRIPOS>ATOM
      1 N10         66.1810    83.1420   140.2850 na         1 FN6      -0.317500
      2 C11         65.9530    84.3730   139.7030 cc         1 FN6      -0.230000
      3 C13         62.2610    90.5170   141.2550 c3         1 FN6      -0.049400
      4 C14         63.0880    91.2360   142.3610 c3         1 FN6       0.009500
      5 N1          63.7040    88.5030   140.9160 n7         1 FN6      -0.830400
      6 C2          63.8890    87.0110   140.9010 c3         1 FN6       0.040500
      7 C3          62.9660    86.2210   139.8770 c          1 FN6       0.720000
      8 O4          62.0150    85.5900   140.3230 o          1 FN6      -0.741500
      9 O5          63.2180    86.2740   138.6780 o          1 FN6      -0.741500
     10 C6          65.3910    86.6970   140.6810 c3         1 FN6      -0.086700
     11 C7          65.6950    85.2220   140.7490 cd         1 FN6       0.304300
     12 N8          65.7720    84.5440   141.9500 nd         1 FN6      -0.667000
     13 C9          66.0610    83.2900   141.6450 cc         1 FN6       0.354400
     14 C15         63.2160    92.7790   142.0270 c          1 FN6       0.691000
     15 O16         64.3240    93.2260   141.7630 o          1 FN6      -0.752500
     16 O17         62.2270    93.4900   142.1540 o          1 FN6      -0.752500
     17 N18         62.5570    90.9040   143.7360 n8         1 FN6      -0.989200
     18 H1          66.4000    82.2740   139.8100 hn         1 FN6       0.322000
     19 H2          65.9840    84.5530   138.6350 h4         1 FN6       0.154000
     20 H3          62.5910    90.8800   140.2740 hc         1 FN6       0.034700
     21 H4          61.2090    90.8110   141.3480 hc         1 FN6       0.034700
     22 H5          64.1110    90.8380   142.3140 h1         1 FN6       0.048700
     23 H6          64.3390    88.8950   141.6180 hn         1 FN6       0.382000
     24 H8          63.6340    86.6290   141.8990 h1         1 FN6       0.015700
     25 H10         65.9860    87.2250   141.4350 hc         1 FN6       0.037700
     26 H11         65.7070    87.0920   139.7080 hc         1 FN6       0.037700
     27 H13         66.1970    82.4690   142.3380 h5         1 FN6       0.023100
     28 H14         61.6250    88.5890   140.5200 h1         1 FN6       0.016700
     29 H15         62.0420    88.5870   142.2400 h1         1 FN6       0.016700
     30 H17         63.1540    91.3520   144.4410 hn         1 FN6       0.368500
     31 H18         61.6550    91.3790   143.8560 hn         1 FN6       0.368500
     32 C12         62.3450    88.9710   141.2560 c3         1 FN6       0.177800
@<TRIPOS>BOND
     1     1     2 1   
     2     1    13 1   
     3     1    18 1   
     4     2    11 2   
     5     2    19 1   
     6     3     4 1   
     7     3    20 1   
     8     3    21 1   
     9     3    32 1   
    10     4    14 1   
    11     4    17 1   
    12     4    22 1   
    13     5     6 1   
    14     5    23 1   
    15     5    32 1   
    16     6     7 1   
    17     6    10 1   
    18     6    24 1   
    19     7     8 1   
    20     7     9 1   
    21    10    11 1   
    22    10    25 1   
    23    10    26 1   
    24    11    12 1   
    25    12    13 2   
    26    13    27 1   
    27    14    15 1   
    28    14    16 1   
    29    17    30 1   
    30    17    31 1   
    31    28    32 1   
    32    29    32 1   
@<TRIPOS>SUBSTRUCTURE
     1 FN6         1 TEMP              0 ****  ****    0 ROOT
