@<TRIPOS>MOLECULE
FN6
   32    32     1     0     0
SMALL
bcc


@<TRIPOS>ATOM
      1 N10         66.1000    83.1880   140.3890 na         1 FN6      -0.317900
      2 C11         66.0410    84.4560   139.8820 cc         1 FN6      -0.262600
      3 C13         62.2610    90.4830   141.1960 c3         1 FN6      -0.049400
      4 C14         63.1930    91.2360   142.1520 c3         1 FN6       0.009500
      5 N1          63.7300    88.5080   141.0100 n7         1 FN6      -0.775200
      6 C2          63.8580    87.0620   140.9730 c3         1 FN6       0.040500
      7 C3          63.1390    86.4450   139.7480 c          1 FN6       0.930600
      8 O4          62.4450    85.4320   139.9630 o          1 FN6      -0.846800
      9 O5          63.3480    86.9910   138.6470 o          1 FN6      -0.846800
     10 C6          65.3510    86.7120   140.8990 c3         1 FN6      -0.086700
     11 C7          65.6170    85.2460   140.9140 cd         1 FN6       0.369600
     12 N8          65.4250    84.4770   142.0310 nd         1 FN6      -0.667000
     13 C9          65.7220    83.2520   141.6780 cc         1 FN6       0.354400
     14 C15         62.9260    92.7610   142.0400 c          1 FN6       0.901600
     15 O16         63.1460    93.2690   140.9200 o          1 FN6      -0.857800
     16 O17         62.5140    93.3510   143.0580 o          1 FN6      -0.857800
     17 N18         63.0980    90.6730   143.4910 n8         1 FN6      -0.878800
     18 H1          66.3810    82.3590   139.8910 hn         1 FN6       0.271700
     19 H2          66.2930    84.6830   138.8590 h4         1 FN6       0.172000
     20 H3          62.4560    90.8290   140.1800 hc         1 FN6       0.034700
     21 H4          61.2220    90.7490   141.4210 hc         1 FN6       0.034700
     22 H5          64.2220    91.0750   141.8070 h1         1 FN6       0.048700
     23 H6          64.3010    88.8500   141.7750 hn         1 FN6       0.326800
     24 H8          63.4440    86.5940   141.8810 h1         1 FN6       0.015700
     25 H10         65.8680    87.1830   141.7420 hc         1 FN6       0.037700
     26 H11         65.7660    87.1510   139.9890 hc         1 FN6       0.037700
     27 H13         65.6860    82.3810   142.3150 h5         1 FN6       0.023100
     28 H14         61.7300    88.5590   140.4560 h1         1 FN6       0.016700
     29 H15         61.9620    88.5900   142.1920 h1         1 FN6       0.016700
     30 H17         63.7110    91.1950   144.1060 hn         1 FN6       0.313300
     31 H18         62.1680    90.8580   143.8500 hn         1 FN6       0.313300
     32 C12         62.3730    88.9640   141.2420 c3         1 FN6       0.177800
@<TRIPOS>BOND
     1     1     2 1   
     2     1    13 1   
     3     1    18 1   
     4     2    11 2   
     5     2    19 1   
     6     3     4 1   
     7     3    20 1   
     8     3    21 1   
     9     3    32 1   
    10     4    14 1   
    11     4    17 1   
    12     4    22 1   
    13     5     6 1   
    14     5    23 1   
    15     5    32 1   
    16     6     7 1   
    17     6    10 1   
    18     6    24 1   
    19     7     8 1   
    20     7     9 1   
    21    10    11 1   
    22    10    25 1   
    23    10    26 1   
    24    11    12 1   
    25    12    13 2   
    26    13    27 1   
    27    14    15 1   
    28    14    16 1   
    29    17    30 1   
    30    17    31 1   
    31    28    32 1   
    32    29    32 1   
@<TRIPOS>SUBSTRUCTURE
     1 FN6         1 TEMP              0 ****  ****    0 ROOT
