@<TRIPOS>MOLECULE
FN7
   22    22     1     0     0
SMALL
No Charge or Current Charge


@<TRIPOS>ATOM
      1 C02         34.5390    41.2020    81.1200 c          1 FN7       0.718600
      2 C03         35.9270    40.8860    80.6710 ca         1 FN7      -0.152600
      3 C04         36.2260    40.8880    79.2950 ca         1 FN7       0.359300
      4 C05         35.1720    41.2040    78.2410 c3         1 FN7      -0.130400
      5 C07         38.4420    40.3220    79.6970 ca         1 FN7       0.313300
      6 C08         39.8100    40.0230    79.1090 c3         1 FN7      -0.128400
      7 C09         38.2280    40.3010    81.0860 ca         1 FN7      -0.188000
      8 C10         36.9500    40.5860    81.5950 ca         1 FN7      -0.031300
      9 C11         36.6940    40.5690    83.0970 c3         1 FN7      -0.037800
     10 N06         37.4630    40.6110    78.8150 nb         1 FN7      -0.713000
     11 O01         33.7510    40.2770    81.2390 o          1 FN7      -0.716000
     12 O12         34.2630    42.3690    81.3530 o          1 FN7      -0.716000
     13 H052        35.5800    41.1590    77.2240 hc         1 FN7       0.042367
     14 H051        34.3420    40.4910    78.2930 hc         1 FN7       0.042367
     15 H053        34.7640    42.2100    78.3870 hc         1 FN7       0.042367
     16 H081        39.7350    39.3560    78.2420 hc         1 FN7       0.029700
     17 H083        40.3050    40.9450    78.7830 hc         1 FN7       0.029700
     18 H082        40.4640    39.5360    79.8420 hc         1 FN7       0.029700
     19 H091        39.0490    40.0650    81.7580 ha         1 FN7       0.091000
     20 H113        35.9270    39.8290    83.3570 hc         1 FN7       0.038367
     21 H111        37.6000    40.3160    83.6610 hc         1 FN7       0.038367
     22 H112        36.3500    41.5490    83.4490 hc         1 FN7       0.038367
@<TRIPOS>BOND
     1     1     2 1   
     2     1    11 1   
     3     1    12 1   
     4     2     3 ar  
     5     2     8 ar  
     6     3     4 1   
     7     3    10 ar  
     8     4    13 1   
     9     4    14 1   
    10     4    15 1   
    11     5     6 1   
    12     5     7 ar  
    13     5    10 ar  
    14     6    16 1   
    15     6    17 1   
    16     6    18 1   
    17     7     8 ar  
    18     7    19 1   
    19     8     9 1   
    20     9    20 1   
    21     9    21 1   
    22     9    22 1   
@<TRIPOS>SUBSTRUCTURE
     1 FN7         1 TEMP              0 ****  ****    0 ROOT
