@<TRIPOS>MOLECULE
FN7
   22    22     1     0     0
SMALL
abcg2


@<TRIPOS>ATOM
      1 C02         34.5170    41.2060    81.1450 c          1 FN7       0.718600
      2 C03         35.9250    40.8930    80.6600 ca         1 FN7      -0.152600
      3 C04         36.2320    40.8740    79.2980 ca         1 FN7       0.359300
      4 C05         35.1890    41.1760    78.2600 c3         1 FN7      -0.130400
      5 C07         38.4290    40.3220    79.6910 ca         1 FN7       0.313300
      6 C08         39.7880    40.0200    79.1280 c3         1 FN7      -0.128400
      7 C09         38.2130    40.3270    81.0630 ca         1 FN7      -0.188000
      8 C10         36.9490    40.6030    81.5670 ca         1 FN7      -0.031300
      9 C11         36.7110    40.5900    83.0480 c3         1 FN7      -0.037800
     10 N06         37.4500    40.5870    78.8340 nb         1 FN7      -0.713000
     11 O01         33.9190    40.2750    81.7150 o          1 FN7      -0.716000
     12 O12         34.1020    42.3600    80.9330 o          1 FN7      -0.716000
     13 H052        35.5700    40.9440    77.2680 hc         1 FN7       0.042367
     14 H051        34.2760    40.6010    78.4210 hc         1 FN7       0.042367
     15 H053        34.9060    42.2290    78.2790 hc         1 FN7       0.042367
     16 H081        39.7640    40.0250    78.0400 hc         1 FN7       0.029700
     17 H083        40.5240    40.7560    79.4560 hc         1 FN7       0.029700
     18 H082        40.1470    39.0440    79.4580 hc         1 FN7       0.029700
     19 H091        39.0320    40.1090    81.7390 ha         1 FN7       0.091000
     20 H113        36.1270    39.7190    83.3430 hc         1 FN7       0.038367
     21 H111        37.6530    40.5620    83.5950 hc         1 FN7       0.038367
     22 H112        36.1570    41.4710    83.3740 hc         1 FN7       0.038367
@<TRIPOS>BOND
     1     1     2 1   
     2     1    11 1   
     3     1    12 1   
     4     2     3 ar  
     5     2     8 ar  
     6     3     4 1   
     7     3    10 ar  
     8     4    13 1   
     9     4    14 1   
    10     4    15 1   
    11     5     6 1   
    12     5     7 ar  
    13     5    10 ar  
    14     6    16 1   
    15     6    17 1   
    16     6    18 1   
    17     7     8 ar  
    18     7    19 1   
    19     8     9 1   
    20     9    20 1   
    21     9    21 1   
    22     9    22 1   
@<TRIPOS>SUBSTRUCTURE
     1 FN7         1 TEMP              0 ****  ****    0 ROOT
