@<TRIPOS>MOLECULE
FN8
   58    57     1     0     0
SMALL
abcg2


@<TRIPOS>ATOM
      1 N3           5.0770     1.4030     0.1150 n          1 FN8      -0.299300
      2 C4          -3.1560    -0.6820    -0.7530 c3         1 FN8      -0.054200
      3 C5          -2.5780    -0.9500     0.6300 c3         1 FN8       0.173600
      4 C6          -0.4680    -1.2450     1.6670 c3         1 FN8       0.374300
      5 C7           1.0140    -1.2960     1.2720 c3         1 FN8       0.088700
      6 C8           1.5910     0.0610     0.8660 c3         1 FN8      -0.086400
      7 C10          3.6380     1.3800     0.2460 c3         1 FN8       0.104000
      8 C13          1.8640    -4.2840    -0.9120 c3         1 FN8      -0.179100
      9 C84         -6.2350     3.7250    -0.3870 c3         1 FN8       0.084300
     10 N82         -6.3490     2.2930    -0.5220 n          1 FN8      -0.282300
     11 O83         -7.3330     1.8870    -1.3890 oh         1 FN8      -0.440100
     12 C80         -5.3270     1.4330    -0.2630 c          1 FN8       0.616300
     13 O81         -4.2900     1.8450     0.2440 o          1 FN8      -0.591100
     14 C2          -5.5860     0.0110    -0.5690 ce         1 FN8      -0.285200
     15 C3          -4.6410    -0.9190    -0.7650 c2         1 FN8      -0.033400
     16 C11         -5.0450    -2.3370    -1.0320 c3         1 FN8      -0.071900
     17 O7          -1.1760    -0.7810     0.5610 os         1 FN8      -0.500000
     18 O8          -0.7010    -0.4890     2.8150 oh         1 FN8      -0.670000
     19 N2           1.1890    -2.2580     0.2060 ns         1 FN8      -0.504900
     20 C12          1.7660    -3.4650     0.3500 c          1 FN8       0.601100
     21 O9           2.1990    -3.8790     1.4180 o          1 FN8      -0.611100
     22 C9           3.0990     0.0120     0.6500 c3         1 FN8      -0.099400
     23 O3           5.7690     1.4250     1.2970 oh         1 FN8      -0.429100
     24 C14          5.7600     1.4910    -1.0500 c          1 FN8       0.613100
     25 O71          5.1730     1.5220    -2.1210 o          1 FN8      -0.592100
     26 C72          7.2700     1.5360    -0.9440 c3         1 FN8      -0.147400
     27 C91          7.9440     1.7030    -2.2950 c3         1 FN8      -0.080100
     28 H1          -2.9100     0.3350    -1.0550 hc         1 FN8       0.065700
     29 H2          -2.6900    -1.3640    -1.4690 hc         1 FN8       0.065700
     30 H3          -3.0260    -0.2620     1.3510 h1         1 FN8       0.038200
     31 H4          -2.8160    -1.9720     0.9550 h1         1 FN8       0.038200
     32 H5          -0.7920    -2.2620     1.9270 h2         1 FN8       0.073700
     33 H6           1.5620    -1.6680     2.1390 h1         1 FN8       0.096700
     34 H7           1.0940     0.4210    -0.0390 hc         1 FN8       0.053200
     35 H8           1.3830     0.7970     1.6490 hc         1 FN8       0.053200
     36 H9           3.3520     2.1350     0.9830 h1         1 FN8       0.067700
     37 H10          3.2100     1.6850    -0.7070 h1         1 FN8       0.067700
     38 H11          2.9140    -4.3960    -1.1840 hc         1 FN8       0.061033
     39 H12          1.4680    -5.2820    -0.7300 hc         1 FN8       0.061033
     40 H13          1.3370    -3.8500    -1.7600 hc         1 FN8       0.061033
     41 H14         -5.5300     3.9610     0.4040 h1         1 FN8       0.050367
     42 H15         -5.8980     4.1960    -1.3130 h1         1 FN8       0.050367
     43 H16         -7.2050     4.1380    -0.1140 h1         1 FN8       0.050367
     44 H17         -8.1270     1.7590    -0.8520 ho         1 FN8       0.445000
     45 H18         -6.6190    -0.3030    -0.6350 ha         1 FN8       0.188000
     46 H19         -4.7370    -2.6360    -2.0370 hc         1 FN8       0.048033
     47 H20         -4.5460    -3.0200    -0.3410 hc         1 FN8       0.048033
     48 H21         -6.1190    -2.4870    -0.9450 hc         1 FN8       0.048033
     49 H22         -0.4350     0.4250     2.6640 ho         1 FN8       0.453000
     50 H23          0.8420    -1.9980    -0.7040 hn         1 FN8       0.321500
     51 H24          3.5830    -0.3230     1.5710 hc         1 FN8       0.050200
     52 H25          3.3480    -0.7150    -0.1270 hc         1 FN8       0.050200
     53 H26          5.9320     0.5040     1.5440 ho         1 FN8       0.438000
     54 H27          7.5650     2.3490    -0.2760 hc         1 FN8       0.064200
     55 H28          7.6210     0.6190    -0.4620 hc         1 FN8       0.064200
     56 H29          7.7180     0.8780    -2.9700 hc         1 FN8       0.042033
     57 H30          7.6430     2.6290    -2.7840 hc         1 FN8       0.042033
     58 H31          9.0250     1.7350    -2.1640 hc         1 FN8       0.042033
@<TRIPOS>BOND
     1     1     7 1   
     2     1    23 1   
     3     1    24 1   
     4     2     3 1   
     5     2    15 1   
     6     2    28 1   
     7     2    29 1   
     8     3    17 1   
     9     3    30 1   
    10     3    31 1   
    11     4     5 1   
    12     4    17 1   
    13     4    18 1   
    14     4    32 1   
    15     5     6 1   
    16     5    19 1   
    17     5    33 1   
    18     6    22 1   
    19     6    34 1   
    20     6    35 1   
    21     7    22 1   
    22     7    36 1   
    23     7    37 1   
    24     8    20 1   
    25     8    38 1   
    26     8    39 1   
    27     8    40 1   
    28     9    10 1   
    29     9    41 1   
    30     9    42 1   
    31     9    43 1   
    32    10    11 1   
    33    10    12 1   
    34    11    44 1   
    35    12    13 2   
    36    12    14 1   
    37    14    15 2   
    38    14    45 1   
    39    15    16 1   
    40    16    46 1   
    41    16    47 1   
    42    16    48 1   
    43    18    49 1   
    44    19    20 1   
    45    19    50 1   
    46    20    21 2   
    47    22    51 1   
    48    22    52 1   
    49    23    53 1   
    50    24    25 2   
    51    24    26 1   
    52    26    27 1   
    53    26    54 1   
    54    26    55 1   
    55    27    56 1   
    56    27    57 1   
    57    27    58 1   
@<TRIPOS>SUBSTRUCTURE
     1 FN8         1 TEMP              0 ****  ****    0 ROOT
