@<TRIPOS>MOLECULE
FN8
   58    57     1     0     0
SMALL
No Charge or Current Charge


@<TRIPOS>ATOM
      1 N3           5.1580     1.5780     0.1570 n          1 FN8      -0.299300
      2 C4          -3.1430    -0.7140    -0.8730 c3         1 FN8      -0.054200
      3 C5          -2.5810    -1.1310     0.4990 c3         1 FN8       0.173600
      4 C6          -0.4570    -1.2990     1.6580 c3         1 FN8       0.374300
      5 C7           1.0800    -1.2830     1.3590 c3         1 FN8       0.088700
      6 C8           1.6310     0.1040     0.9170 c3         1 FN8      -0.086400
      7 C10          3.6900     1.5430     0.3440 c3         1 FN8       0.104000
      8 C13          1.8290    -4.5350    -0.5700 c3         1 FN8      -0.179100
      9 C84         -6.2550     3.7800    -0.0470 c3         1 FN8       0.084300
     10 N82         -6.3890     2.3590    -0.4300 n          1 FN8      -0.282300
     11 O83         -7.5650     2.0270    -1.2010 oh         1 FN8      -0.440100
     12 C80         -5.3920     1.3880    -0.1280 c          1 FN8       0.616300
     13 O81         -4.3760     1.7160     0.4720 o          1 FN8      -0.591100
     14 C2          -5.6060    -0.0080    -0.6320 ce         1 FN8      -0.285200
     15 C3          -4.6520    -0.9130    -0.9730 c2         1 FN8      -0.033400
     16 C11         -5.0090    -2.2860    -1.5180 c3         1 FN8      -0.071900
     17 O7          -1.1560    -0.9290     0.4650 os         1 FN8      -0.500000
     18 O8          -0.7870    -0.3690     2.6820 oh         1 FN8      -0.670000
     19 N2           1.4480    -2.3160     0.3730 ns         1 FN8      -0.504900
     20 C12          1.4620    -3.6660     0.6240 c          1 FN8       0.601100
     21 O9           1.2010    -4.1320     1.7230 o          1 FN8      -0.611100
     22 C9           3.1680     0.1420     0.7280 c3         1 FN8      -0.099400
     23 O3           5.9350     1.7580     1.3620 oh         1 FN8      -0.429100
     24 C14          5.7840     1.5190    -1.1200 c          1 FN8       0.613100
     25 O71          5.1180     1.3910    -2.1420 o          1 FN8      -0.592100
     26 C72          7.3220     1.6140    -1.1690 c3         1 FN8      -0.147400
     27 C91          7.9620     1.5490    -2.5750 c3         1 FN8      -0.080100
     28 H1          -2.8760     0.3300    -1.0660 hc         1 FN8       0.065700
     29 H2          -2.6290    -1.2920    -1.6510 hc         1 FN8       0.065700
     30 H3          -3.0510    -0.5280     1.2860 h1         1 FN8       0.038200
     31 H4          -2.8180    -2.1870     0.6860 h1         1 FN8       0.038200
     32 H5          -0.7430    -2.3070     1.9880 h2         1 FN8       0.073700
     33 H6           1.5800    -1.5430     2.3020 h1         1 FN8       0.096700
     34 H7           1.1470     0.4060    -0.0200 hc         1 FN8       0.053200
     35 H8           1.3590     0.8560     1.6680 hc         1 FN8       0.053200
     36 H9           3.4200     2.2570     1.1330 h1         1 FN8       0.067700
     37 H10          3.1940     1.8760    -0.5770 h1         1 FN8       0.067700
     38 H11          2.7960    -4.2060    -0.9680 hc         1 FN8       0.061033
     39 H12          1.8330    -5.6040    -0.3300 hc         1 FN8       0.061033
     40 H13          1.1480    -4.3090    -1.3980 hc         1 FN8       0.061033
     41 H14         -6.1700     3.8630     1.0440 h1         1 FN8       0.050367
     42 H15         -5.3550     4.2040    -0.5110 h1         1 FN8       0.050367
     43 H16         -7.1300     4.3510    -0.3820 h1         1 FN8       0.050367
     44 H17         -8.2580     1.8040    -0.5370 ho         1 FN8       0.445000
     45 H18         -6.6440    -0.2630    -0.8210 ha         1 FN8       0.188000
     46 H19         -4.6440    -2.4120    -2.5440 hc         1 FN8       0.048033
     47 H20         -4.5720    -3.0840    -0.9060 hc         1 FN8       0.048033
     48 H21         -6.0940    -2.4480    -1.5360 hc         1 FN8       0.048033
     49 H22         -0.9170     0.4780     2.2080 ho         1 FN8       0.453000
     50 H23          1.6520    -2.0260    -0.5760 hn         1 FN8       0.321500
     51 H24          3.6540    -0.1800     1.6570 hc         1 FN8       0.050200
     52 H25          3.4650    -0.5670    -0.0540 hc         1 FN8       0.050200
     53 H26          6.1240     0.8500     1.6910 ho         1 FN8       0.438000
     54 H27          7.6190     2.5240    -0.6340 hc         1 FN8       0.064200
     55 H28          7.7280     0.8410    -0.5070 hc         1 FN8       0.064200
     56 H29          7.7180     0.6010    -3.0700 hc         1 FN8       0.042033
     57 H30          7.6020     2.3730    -3.2040 hc         1 FN8       0.042033
     58 H31          9.0540     1.6260    -2.5020 hc         1 FN8       0.042033
@<TRIPOS>BOND
     1     1     7 1   
     2     1    23 1   
     3     1    24 1   
     4     2     3 1   
     5     2    15 1   
     6     2    28 1   
     7     2    29 1   
     8     3    17 1   
     9     3    30 1   
    10     3    31 1   
    11     4     5 1   
    12     4    17 1   
    13     4    18 1   
    14     4    32 1   
    15     5     6 1   
    16     5    19 1   
    17     5    33 1   
    18     6    22 1   
    19     6    34 1   
    20     6    35 1   
    21     7    22 1   
    22     7    36 1   
    23     7    37 1   
    24     8    20 1   
    25     8    38 1   
    26     8    39 1   
    27     8    40 1   
    28     9    10 1   
    29     9    41 1   
    30     9    42 1   
    31     9    43 1   
    32    10    11 1   
    33    10    12 1   
    34    11    44 1   
    35    12    13 2   
    36    12    14 1   
    37    14    15 2   
    38    14    45 1   
    39    15    16 1   
    40    16    46 1   
    41    16    47 1   
    42    16    48 1   
    43    18    49 1   
    44    19    20 1   
    45    19    50 1   
    46    20    21 2   
    47    22    51 1   
    48    22    52 1   
    49    23    53 1   
    50    24    25 2   
    51    24    26 1   
    52    26    27 1   
    53    26    54 1   
    54    26    55 1   
    55    27    56 1   
    56    27    57 1   
    57    27    58 1   
@<TRIPOS>SUBSTRUCTURE
     1 FN8         1 TEMP              0 ****  ****    0 ROOT
