@<TRIPOS>MOLECULE
FN9
   51    54     1     0     0
SMALL
No Charge or Current Charge


@<TRIPOS>ATOM
      1 C13         28.6070    -2.7350    10.1760 cc         1 FN9      -0.140000
      2 C15         29.2690    -5.1450     9.7170 c3         1 FN9       0.063900
      3 C17         28.5560    -5.3240    12.8560 c          1 FN9       0.616600
      4 C20         28.1780    -6.1040    15.1810 c3         1 FN9       0.062300
      5 C21         26.8370    -0.7420    19.9450 ca         1 FN9      -0.078300
      6 C22         26.2670    -1.6830    20.8280 ca         1 FN9      -0.104500
      7 C24         27.3180    -0.5710    22.7230 ca         1 FN9      -0.109000
      8 C26         27.6520     0.2840    20.4670 ca         1 FN9      -0.104500
      9 C01         23.4040    -0.5650    16.2770 c3         1 FN9       0.156100
     10 C03         25.0690    -0.7210    18.0900 c6         1 FN9       0.167800
     11 C04         26.5830    -0.8270    18.4320 c6         1 FN9      -0.015400
     12 C05         27.1830    -2.1210    17.8200 c6         1 FN9      -0.081400
     13 C06         26.9170    -2.1800    16.2960 c6         1 FN9       0.237500
     14 C07         25.3900    -2.0110    16.0130 c6         1 FN9       0.139800
     15 C09         27.7940    -3.7160    14.4750 cc         1 FN9       0.705800
     16 C11         28.1300    -2.9440    12.3580 cd         1 FN9       0.185400
     17 C12         28.1830    -2.0490    11.2830 cd         1 FN9      -0.192000
     18 C16         28.5090    -4.1810    11.9580 cc         1 FN9      -0.327600
     19 C23         26.5060    -1.5970    22.2110 ca         1 FN9      -0.110000
     20 C25         27.8910     0.3690    21.8500 ca         1 FN9      -0.110000
     21 N02         24.8270    -0.7660    16.6210 n3         1 FN9      -0.710600
     22 N08         27.4210    -3.4700    15.7700 nu         1 FN9      -0.903400
     23 N10         27.7550    -2.6750    13.6560 nd         1 FN9      -0.668100
     24 N14         28.8090    -4.0570    10.5930 na         1 FN9       0.057000
     25 N19         28.1720    -5.0170    14.1600 n          1 FN9      -0.351300
     26 O18         28.8990    -6.4430    12.4950 o          1 FN9      -0.568000
     27 H131        28.7770    -2.4070     9.1580 h4         1 FN9       0.144000
     28 H151        30.2130    -5.5490    10.1010 h1         1 FN9       0.056367
     29 H153        28.5140    -5.9400     9.6930 h1         1 FN9       0.056367
     30 H152        29.4260    -4.7650     8.7010 h1         1 FN9       0.056367
     31 H201        27.1640    -6.2490    15.5740 h1         1 FN9       0.054700
     32 H203        28.5190    -7.0600    14.7650 h1         1 FN9       0.054700
     33 H202        28.8530    -5.8350    16.0040 h1         1 FN9       0.054700
     34 H221        25.6380    -2.4840    20.4480 ha         1 FN9       0.110500
     35 H241        27.5030    -0.5050    23.7930 ha         1 FN9       0.113000
     36 H261        28.1030     1.0180    19.8040 ha         1 FN9       0.110500
     37 H013        23.0370     0.3870    16.6840 h1         1 FN9       0.032033
     38 H012        23.2680    -0.5410    15.1870 h1         1 FN9       0.032033
     39 H011        22.7840    -1.3750    16.6840 h1         1 FN9       0.032033
     40 H032        24.6820     0.2200    18.5070 h1         1 FN9       0.035700
     41 H031        24.5250    -1.5390    18.5850 h1         1 FN9       0.035700
     42 H041        27.0790     0.0280    17.9510 hc         1 FN9       0.069700
     43 H051        26.7460    -3.0020    18.3080 hc         1 FN9       0.047200
     44 H052        28.2640    -2.1550    18.0110 hc         1 FN9       0.047200
     45 H061        27.4420    -1.3310    15.8300 h1         1 FN9       0.103700
     46 H071        25.2340    -2.0000    14.9250 h1         1 FN9       0.039200
     47 H072        24.8570    -2.8910    16.4030 h1         1 FN9       0.039200
     48 H121        27.9320    -0.9940    11.3240 ha         1 FN9       0.148000
     49 H231        26.0630    -2.3270    22.8850 ha         1 FN9       0.112000
     50 H251        28.5200     1.1630    22.2450 ha         1 FN9       0.112000
     51 H081        27.4440    -4.2780    16.3790 hn         1 FN9       0.485000
@<TRIPOS>BOND
     1     1    17 2   
     2     1    24 1   
     3     1    27 1   
     4     2    24 1   
     5     2    28 1   
     6     2    29 1   
     7     2    30 1   
     8     3    18 1   
     9     3    25 1   
    10     3    26 2   
    11     4    25 1   
    12     4    31 1   
    13     4    32 1   
    14     4    33 1   
    15     5     6 ar  
    16     5     8 ar  
    17     5    11 1   
    18     6    19 ar  
    19     6    34 1   
    20     7    19 ar  
    21     7    20 ar  
    22     7    35 1   
    23     8    20 ar  
    24     8    36 1   
    25     9    21 1   
    26     9    37 1   
    27     9    38 1   
    28     9    39 1   
    29    10    11 1   
    30    10    21 1   
    31    10    40 1   
    32    10    41 1   
    33    11    12 1   
    34    11    42 1   
    35    12    13 1   
    36    12    43 1   
    37    12    44 1   
    38    13    14 1   
    39    13    22 1   
    40    13    45 1   
    41    14    21 1   
    42    14    46 1   
    43    14    47 1   
    44    15    22 1   
    45    15    23 2   
    46    15    25 1   
    47    16    17 1   
    48    16    18 2   
    49    16    23 1   
    50    17    48 1   
    51    18    24 1   
    52    19    49 1   
    53    20    50 1   
    54    22    51 1   
@<TRIPOS>SUBSTRUCTURE
     1 FN9         1 TEMP              0 ****  ****    0 ROOT
