@<TRIPOS>MOLECULE
FN9
   51    54     1     0     0
SMALL
bcc


@<TRIPOS>ATOM
      1 C13         28.5640    -2.7700    10.2620 cc         1 FN9      -0.107300
      2 C15         29.1910    -5.1210     9.7610 c3         1 FN9       0.034600
      3 C17         28.5010    -5.2780    12.8310 c          1 FN9       0.759100
      4 C20         28.1890    -6.0090    15.1460 c3         1 FN9       0.062300
      5 C21         26.8360    -0.7670    19.9080 ca         1 FN9      -0.078300
      6 C22         26.3200    -1.7210    20.7860 ca         1 FN9      -0.122500
      7 C24         27.2310    -0.5390    22.6760 ca         1 FN9      -0.127000
      8 C26         27.5510     0.3010    20.4440 ca         1 FN9      -0.122500
      9 C01         23.5920    -0.5830    16.2430 c3         1 FN9       0.156100
     10 C03         25.1500    -0.7610    18.0500 c6         1 FN9       0.167800
     11 C04         26.6290    -0.8750    18.4190 c6         1 FN9      -0.015400
     12 C05         27.2150    -2.1660    17.8450 c6         1 FN9      -0.081400
     13 C06         26.9450    -2.2430    16.3490 c6         1 FN9       0.237500
     14 C07         25.4530    -2.0730    16.0710 c6         1 FN9       0.139800
     15 C09         27.7520    -3.6750    14.5250 cc         1 FN9       0.705800
     16 C11         28.0760    -2.8970    12.4340 cd         1 FN9       0.185400
     17 C12         28.1450    -2.0120    11.3340 cd         1 FN9      -0.210000
     18 C16         28.4570    -4.1510    11.9720 cc         1 FN9      -0.276900
     19 C23         26.5140    -1.6090    22.1550 ca         1 FN9      -0.128000
     20 C25         27.7490     0.4180    21.8140 ca         1 FN9      -0.128000
     21 N02         24.9680    -0.8220    16.6140 n3         1 FN9      -0.710600
     22 N08         27.4450    -3.5000    15.8330 nu         1 FN9      -0.848200
     23 N10         27.7070    -2.6570    13.7170 nd         1 FN9      -0.668100
     24 N14         28.7520    -4.0560    10.6350 na         1 FN9      -0.015100
     25 N19         28.1370    -4.9490    14.1490 n          1 FN9      -0.418300
     26 O18         28.8170    -6.4200    12.5250 o          1 FN9      -0.643500
     27 H131        28.7420    -2.4700     9.2410 h4         1 FN9       0.162000
     28 H151        30.1280    -5.5520    10.1080 h1         1 FN9       0.056367
     29 H153        28.4450    -5.9100     9.6970 h1         1 FN9       0.056367
     30 H152        29.3450    -4.7080     8.7680 h1         1 FN9       0.056367
     31 H201        27.1950    -6.2410    15.5290 h1         1 FN9       0.054700
     32 H203        28.5880    -6.9040    14.6850 h1         1 FN9       0.054700
     33 H202        28.8410    -5.7270    15.9720 h1         1 FN9       0.054700
     34 H221        25.7580    -2.5640    20.4010 ha         1 FN9       0.128500
     35 H241        27.3850    -0.4530    23.7440 ha         1 FN9       0.131000
     36 H261        27.9610     1.0540    19.7800 ha         1 FN9       0.128500
     37 H013        23.2690     0.3930    16.6100 h1         1 FN9       0.032033
     38 H012        23.4930    -0.5810    15.1560 h1         1 FN9       0.032033
     39 H011        22.8970    -1.3380    16.6410 h1         1 FN9       0.032033
     40 H032        24.7590     0.1940    18.4110 h1         1 FN9       0.035700
     41 H031        24.5780    -1.5540    18.5660 h1         1 FN9       0.035700
     42 H041        27.1450    -0.0330    17.9460 hc         1 FN9       0.069700
     43 H051        26.7610    -3.0310    18.3430 hc         1 FN9       0.047200
     44 H052        28.2900    -2.2120    18.0370 hc         1 FN9       0.047200
     45 H061        27.4840    -1.4370    15.8490 h1         1 FN9       0.103700
     46 H071        25.2870    -2.0780    14.9910 h1         1 FN9       0.039200
     47 H072        24.9120    -2.9430    16.4880 h1         1 FN9       0.039200
     48 H121        27.9190    -0.9580    11.3220 ha         1 FN9       0.166000
     49 H231        26.1050    -2.3600    22.8190 ha         1 FN9       0.130000
     50 H251        28.3100     1.2560    22.2060 ha         1 FN9       0.130000
     51 H081        27.2320    -4.3110    16.3920 hn         1 FN9       0.429800
@<TRIPOS>BOND
     1     1    17 2   
     2     1    24 1   
     3     1    27 1   
     4     2    24 1   
     5     2    28 1   
     6     2    29 1   
     7     2    30 1   
     8     3    18 1   
     9     3    25 1   
    10     3    26 2   
    11     4    25 1   
    12     4    31 1   
    13     4    32 1   
    14     4    33 1   
    15     5     6 ar  
    16     5     8 ar  
    17     5    11 1   
    18     6    19 ar  
    19     6    34 1   
    20     7    19 ar  
    21     7    20 ar  
    22     7    35 1   
    23     8    20 ar  
    24     8    36 1   
    25     9    21 1   
    26     9    37 1   
    27     9    38 1   
    28     9    39 1   
    29    10    11 1   
    30    10    21 1   
    31    10    40 1   
    32    10    41 1   
    33    11    12 1   
    34    11    42 1   
    35    12    13 1   
    36    12    43 1   
    37    12    44 1   
    38    13    14 1   
    39    13    22 1   
    40    13    45 1   
    41    14    21 1   
    42    14    46 1   
    43    14    47 1   
    44    15    22 1   
    45    15    23 2   
    46    15    25 1   
    47    16    17 1   
    48    16    18 2   
    49    16    23 1   
    50    17    48 1   
    51    18    24 1   
    52    19    49 1   
    53    20    50 1   
    54    22    51 1   
@<TRIPOS>SUBSTRUCTURE
     1 FN9         1 TEMP              0 ****  ****    0 ROOT
