@<TRIPOS>MOLECULE
FNA
   30    32     1     0     0
SMALL
abcg2


@<TRIPOS>ATOM
      1 C1           3.8970     0.6710     1.0090 ca         1 FNA      -0.075000
      2 N1           0.7160    -0.6510    -0.3370 nu         1 FNA      -0.992000
      3 C2           2.5360     0.5310     0.7840 ca         1 FNA      -0.169500
      4 C3           4.8180    -0.1500     0.3700 ca         1 FNA      -0.148000
      5 C4           2.0660    -0.4370    -0.1090 ca         1 FNA       0.317000
      6 C5           4.3520    -1.1250    -0.5020 ca         1 FNA      -0.075000
      7 C6           2.9950    -1.2650    -0.7470 ca         1 FNA      -0.169500
      8 C7          -1.6400    -0.1840    -0.0460 ca         1 FNA      -0.063000
      9 C8          -2.7110     0.7500    -0.0480 ca         1 FNA      -0.013000
     10 C9          -0.3090     0.2860    -0.2830 ca         1 FNA       0.322000
     11 C10         -2.4450     2.1260    -0.2370 ca         1 FNA      -0.131000
     12 C11         -0.0940     1.6330    -0.4740 ca         1 FNA      -0.171000
     13 C12         -1.1600     2.5490    -0.4350 ca         1 FNA      -0.076000
     14 C13         -4.2850    -1.0440     0.3690 ca         1 FNA      -0.101000
     15 C14         -4.0310     0.2830     0.1580 ca         1 FNA      -0.104000
     16 C15         -1.9340    -1.5470     0.1960 ca         1 FNA      -0.095000
     17 C16         -3.2220    -1.9670     0.3960 ca         1 FNA      -0.115000
     18 H1           4.2380     1.4290     1.7020 ha         1 FNA       0.111000
     19 HN1          0.4990    -1.5080    -0.8200 hn         1 FNA       0.490000
     20 H2           1.8430     1.1680     1.3170 ha         1 FNA       0.116500
     21 H3           5.8780    -0.0350     0.5540 ha         1 FNA       0.114000
     22 H5           5.0480    -1.7820    -1.0080 ha         1 FNA       0.111000
     23 H6           2.6480    -2.0260    -1.4370 ha         1 FNA       0.116500
     24 H110        -3.2660     2.8310    -0.2230 ha         1 FNA       0.115000
     25 H11          0.9020     2.0010    -0.6800 ha         1 FNA       0.124000
     26 H112        -0.9500     3.5990    -0.5860 ha         1 FNA       0.113000
     27 H13         -5.3000    -1.3870     0.5260 ha         1 FNA       0.113000
     28 H14         -4.8420     1.0010     0.1480 ha         1 FNA       0.114000
     29 H15         -1.1380    -2.2780     0.2430 ha         1 FNA       0.111000
     30 H16         -3.4240    -3.0140     0.5830 ha         1 FNA       0.113000
@<TRIPOS>BOND
     1     1     3 ar  
     2     1     4 ar  
     3     1    18 1   
     4     2     5 1   
     5     2    10 1   
     6     2    19 1   
     7     3     5 ar  
     8     3    20 1   
     9     4     6 ar  
    10     4    21 1   
    11     5     7 ar  
    12     6     7 ar  
    13     6    22 1   
    14     7    23 1   
    15     8     9 ar  
    16     8    10 ar  
    17     8    16 ar  
    18     9    11 ar  
    19     9    15 ar  
    20    10    12 ar  
    21    11    13 ar  
    22    11    24 1   
    23    12    13 ar  
    24    12    25 1   
    25    13    26 1   
    26    14    15 ar  
    27    14    17 ar  
    28    14    27 1   
    29    15    28 1   
    30    16    17 ar  
    31    16    29 1   
    32    17    30 1   
@<TRIPOS>SUBSTRUCTURE
     1 FNA         1 TEMP              0 ****  ****    0 ROOT
