@<TRIPOS>MOLECULE
FNA
   30    32     1     0     0
SMALL
No Charge or Current Charge


@<TRIPOS>ATOM
      1 C1           3.9720     0.6800     1.0140 ca         1 FNA      -0.075000
      2 N1           0.7500    -0.5490    -0.4010 nu         1 FNA      -0.992000
      3 C2           2.5950     0.5770     0.7470 ca         1 FNA      -0.169500
      4 C3           4.8720    -0.2130     0.4080 ca         1 FNA      -0.148000
      5 C4           2.1130    -0.4110    -0.1310 ca         1 FNA       0.317000
      6 C5           4.3940    -1.2120    -0.4570 ca         1 FNA      -0.075000
      7 C6           3.0160    -1.3110    -0.7190 ca         1 FNA      -0.169500
      8 C7          -1.6610    -0.1650    -0.0770 ca         1 FNA      -0.063000
      9 C8          -2.7440     0.7490    -0.0270 ca         1 FNA      -0.013000
     10 C9          -0.3460     0.3230    -0.3120 ca         1 FNA       0.322000
     11 C10         -2.5190     2.1240    -0.2120 ca         1 FNA      -0.131000
     12 C11         -0.1470     1.7030    -0.5090 ca         1 FNA      -0.171000
     13 C12         -1.2240     2.6010    -0.4550 ca         1 FNA      -0.076000
     14 C13         -4.2990    -1.0810     0.3970 ca         1 FNA      -0.101000
     15 C14         -4.0530     0.2880     0.2080 ca         1 FNA      -0.104000
     16 C15         -1.9240    -1.5430     0.1210 ca         1 FNA      -0.095000
     17 C16         -3.2350    -1.9940     0.3550 ca         1 FNA      -0.115000
     18 H1           4.3400     1.4460     1.6930 ha         1 FNA       0.111000
     19 HN1          0.4970    -1.4810    -0.7250 hn         1 FNA       0.490000
     20 H2           1.9070     1.2560     1.2400 ha         1 FNA       0.116500
     21 H3           5.9370    -0.1350     0.6140 ha         1 FNA       0.114000
     22 H5           5.0900    -1.9080    -0.9220 ha         1 FNA       0.111000
     23 H6           2.6540    -2.0860    -1.3900 ha         1 FNA       0.116500
     24 H110        -3.3500     2.8260    -0.1740 ha         1 FNA       0.115000
     25 H11          0.8460     2.0840    -0.7270 ha         1 FNA       0.124000
     26 H112        -1.0550     3.6650    -0.6100 ha         1 FNA       0.113000
     27 H13         -5.3120    -1.4330     0.5790 ha         1 FNA       0.113000
     28 H14         -4.8830     0.9900     0.2450 ha         1 FNA       0.114000
     29 H15         -1.1230    -2.2770     0.1050 ha         1 FNA       0.111000
     30 H16         -3.4250    -3.0550     0.5060 ha         1 FNA       0.113000
@<TRIPOS>BOND
     1     1     3 ar  
     2     1     4 ar  
     3     1    18 1   
     4     2     5 1   
     5     2    10 1   
     6     2    19 1   
     7     3     5 ar  
     8     3    20 1   
     9     4     6 ar  
    10     4    21 1   
    11     5     7 ar  
    12     6     7 ar  
    13     6    22 1   
    14     7    23 1   
    15     8     9 ar  
    16     8    10 ar  
    17     8    16 ar  
    18     9    11 ar  
    19     9    15 ar  
    20    10    12 ar  
    21    11    13 ar  
    22    11    24 1   
    23    12    13 ar  
    24    12    25 1   
    25    13    26 1   
    26    14    15 ar  
    27    14    17 ar  
    28    14    27 1   
    29    15    28 1   
    30    16    17 ar  
    31    16    29 1   
    32    17    30 1   
@<TRIPOS>SUBSTRUCTURE
     1 FNA         1 TEMP              0 ****  ****    0 ROOT
