@<TRIPOS>MOLECULE
FNC
   48    51     1     0     0
SMALL
No Charge or Current Charge


@<TRIPOS>ATOM
      1 C13        -28.5700    -2.9010    -9.6640 cc         1 FNC      -0.142000
      2 C15        -28.4840    -4.3070   -11.4830 cc         1 FNC      -0.329600
      3 C20        -26.6800    -0.7660   -19.3910 ca         1 FNC      -0.078300
      4 C21        -26.1260    -1.7040   -20.2880 ca         1 FNC      -0.105000
      5 C22        -26.3540    -1.5880   -21.6700 ca         1 FNC      -0.110000
      6 C24        -27.6950     0.4020   -21.2830 ca         1 FNC      -0.110000
      7 C01        -23.2670    -0.7330   -15.7000 c3         1 FNC       0.156100
      8 C03        -24.9240    -0.8190   -17.5260 c6         1 FNC       0.167800
      9 C04        -26.4370    -0.8830   -17.8780 c6         1 FNC      -0.014400
     10 C05        -27.0710    -2.1740   -17.2930 c6         1 FNC      -0.081400
     11 C06        -26.8160    -2.2660   -15.7690 c6         1 FNC       0.237500
     12 C07        -25.2870    -2.1370   -15.4740 c6         1 FNC       0.140800
     13 C09        -27.7410    -3.8140   -13.9810 cc         1 FNC       0.707800
     14 C11        -28.0760    -3.0710   -11.8520 cd         1 FNC       0.184400
     15 C12        -28.1220    -2.2000   -10.7540 cd         1 FNC      -0.191000
     16 C16        -28.5490    -5.4330   -12.3970 c          1 FNC       0.615600
     17 C23        -27.1380    -0.5350   -22.1680 ca         1 FNC      -0.109000
     18 C25        -27.4670     0.2870   -19.9000 ca         1 FNC      -0.105000
     19 N02        -24.6930    -0.8950   -16.0560 n3         1 FNC      -0.711600
     20 N08        -27.3530    -3.5540   -15.2690 nu         1 FNC      -0.904400
     21 N10        -27.6850    -2.7870   -13.1430 nd         1 FNC      -0.668100
     22 N14        -28.7930    -4.2090   -10.1180 na         1 FNC      -0.079000
     23 N18        -28.1480    -5.1130   -13.6930 n          1 FNC      -0.351300
     24 O17        -28.9200    -6.5450   -12.0470 o          1 FNC      -0.565000
     25 H131       -28.7430    -2.5950    -8.6380 h4         1 FNC       0.147000
     26 H211       -25.5180    -2.5260   -19.9180 ha         1 FNC       0.110500
     27 H221       -25.9230    -2.3160   -22.3550 ha         1 FNC       0.112000
     28 H241       -28.3030     1.2180   -21.6670 ha         1 FNC       0.112000
     29 H012       -23.1370    -0.7320   -14.6090 h1         1 FNC       0.032367
     30 H013       -22.6630    -1.5500   -16.1170 h1         1 FNC       0.032367
     31 H011       -22.8760     0.2170   -16.0880 h1         1 FNC       0.032367
     32 H032       -24.3950    -1.6400   -18.0320 h1         1 FNC       0.035700
     33 H031       -24.5120     0.1210   -17.9230 h1         1 FNC       0.035700
     34 H041       -26.9160    -0.0260   -17.3850 hc         1 FNC       0.069700
     35 H051       -28.1520    -2.1800   -17.4920 hc         1 FNC       0.047200
     36 H052       -26.6510    -3.0560   -17.7950 hc         1 FNC       0.047200
     37 H061       -27.3250    -1.4140   -15.2920 h1         1 FNC       0.103700
     38 H071       -24.7720    -3.0230   -15.8770 h1         1 FNC       0.038700
     39 H072       -25.1380    -2.1490   -14.3850 h1         1 FNC       0.038700
     40 H121       -27.8490    -1.1510   -10.7680 ha         1 FNC       0.147000
     41 H191       -28.5330    -7.1370   -14.3300 h1         1 FNC       0.055033
     42 H193       -28.8360    -5.8880   -15.5530 h1         1 FNC       0.055033
     43 H192       -27.1570    -6.3420   -15.1200 h1         1 FNC       0.055033
     44 H231       -27.3150    -0.4460   -23.2380 ha         1 FNC       0.113000
     45 H251       -27.9050     1.0200   -19.2260 ha         1 FNC       0.110500
     46 H081       -27.3890    -4.3510   -15.8920 hn         1 FNC       0.486000
     47 H141       -29.1320    -4.9750    -9.5400 hn         1 FNC       0.363000
     48 C19        -28.1710    -6.1830   -14.7310 c3         1 FNC       0.062300
@<TRIPOS>BOND
     1     1    15 2   
     2     1    22 1   
     3     1    25 1   
     4     2    14 2   
     5     2    16 1   
     6     2    22 1   
     7     3     4 ar  
     8     3     9 1   
     9     3    18 ar  
    10     4     5 ar  
    11     4    26 1   
    12     5    17 ar  
    13     5    27 1   
    14     6    17 ar  
    15     6    18 ar  
    16     6    28 1   
    17     7    19 1   
    18     7    29 1   
    19     7    30 1   
    20     7    31 1   
    21     8     9 1   
    22     8    19 1   
    23     8    32 1   
    24     8    33 1   
    25     9    10 1   
    26     9    34 1   
    27    10    11 1   
    28    10    35 1   
    29    10    36 1   
    30    11    12 1   
    31    11    20 1   
    32    11    37 1   
    33    12    19 1   
    34    12    38 1   
    35    12    39 1   
    36    13    20 1   
    37    13    21 2   
    38    13    23 1   
    39    14    15 1   
    40    14    21 1   
    41    15    40 1   
    42    16    23 1   
    43    16    24 2   
    44    17    44 1   
    45    18    45 1   
    46    20    46 1   
    47    22    47 1   
    48    23    48 1   
    49    41    48 1   
    50    42    48 1   
    51    43    48 1   
@<TRIPOS>SUBSTRUCTURE
     1 FNC         1 TEMP              0 ****  ****    0 ROOT
