@<TRIPOS>MOLECULE
FNC
   48    51     1     0     0
SMALL
bcc


@<TRIPOS>ATOM
      1 C13        -28.5760    -2.9060    -9.7680 cc         1 FNC      -0.109300
      2 C15        -28.4510    -4.2620   -11.5050 cc         1 FNC      -0.278900
      3 C20        -26.6890    -0.7900   -19.3450 ca         1 FNC      -0.078300
      4 C21        -26.1950    -1.7320   -20.2490 ca         1 FNC      -0.123000
      5 C22        -26.3990    -1.5850   -21.6140 ca         1 FNC      -0.128000
      6 C24        -27.5960     0.4540   -21.2160 ca         1 FNC      -0.128000
      7 C01        -23.4170    -0.7540   -15.6990 c3         1 FNC       0.156100
      8 C03        -24.9900    -0.8590   -17.4990 c6         1 FNC       0.167800
      9 C04        -26.4730    -0.9350   -17.8600 c6         1 FNC      -0.014400
     10 C05        -27.0820    -2.2260   -17.3110 c6         1 FNC      -0.081400
     11 C06        -26.8060    -2.3400   -15.8190 c6         1 FNC       0.237500
     12 C07        -25.3100    -2.2070   -15.5440 c6         1 FNC       0.140800
     13 C09        -27.6660    -3.7780   -14.0250 cc         1 FNC       0.707800
     14 C11        -28.0240    -3.0140   -11.9330 cd         1 FNC       0.184400
     15 C12        -28.1040    -2.1460   -10.8170 cd         1 FNC      -0.209000
     16 C16        -28.5000    -5.3810   -12.3720 c          1 FNC       0.758100
     17 C23        -27.1020    -0.4910   -22.1040 ca         1 FNC      -0.127000
     18 C25        -27.3890     0.3030   -19.8510 ca         1 FNC      -0.123000
     19 N02        -24.8010    -0.9560   -16.0660 n3         1 FNC      -0.711600
     20 N08        -27.3290    -3.5950   -15.3240 nu         1 FNC      -0.849200
     21 N10        -27.6140    -2.7700   -13.2040 nd         1 FNC      -0.668100
     22 N14        -28.7830    -4.1760   -10.1820 na         1 FNC      -0.130100
     23 N18        -28.0870    -5.0500   -13.6730 n          1 FNC      -0.418300
     24 O17        -28.8560    -6.5130   -12.0740 o          1 FNC      -0.640500
     25 H131       -28.7770    -2.6200    -8.7490 h4         1 FNC       0.165000
     26 H211       -25.6460    -2.5940   -19.8890 ha         1 FNC       0.128500
     27 H221       -26.0070    -2.3280   -22.2970 ha         1 FNC       0.130000
     28 H241       -28.1460     1.3110   -21.5840 ha         1 FNC       0.130000
     29 H012       -23.3100    -0.7830   -14.6140 h1         1 FNC       0.032367
     30 H013       -22.7420    -1.5140   -16.1230 h1         1 FNC       0.032367
     31 H011       -23.0760     0.2230   -16.0430 h1         1 FNC       0.032367
     32 H032       -24.4380    -1.6520   -18.0360 h1         1 FNC       0.035700
     33 H031       -24.5820     0.0950   -17.8410 h1         1 FNC       0.035700
     34 H041       -26.9690    -0.0940   -17.3660 hc         1 FNC       0.069700
     35 H051       -28.1590    -2.2470   -17.4970 hc         1 FNC       0.047200
     36 H052       -26.6480    -3.0900   -17.8290 hc         1 FNC       0.047200
     37 H061       -27.3250    -1.5330   -15.3000 h1         1 FNC       0.103700
     38 H071       -24.7880    -3.0790   -15.9800 h1         1 FNC       0.038700
     39 H072       -25.1400    -2.2360   -14.4650 h1         1 FNC       0.038700
     40 H121       -27.8500    -1.0980   -10.7810 ha         1 FNC       0.165000
     41 H191       -28.5350    -6.9980   -14.2340 h1         1 FNC       0.055033
     42 H193       -28.7690    -5.8090   -15.5140 h1         1 FNC       0.055033
     43 H192       -27.1310    -6.3300   -15.0530 h1         1 FNC       0.055033
     44 H231       -27.2620    -0.3780   -23.1680 ha         1 FNC       0.131000
     45 H251       -27.7810     1.0460   -19.1660 ha         1 FNC       0.128500
     46 H081       -27.1300    -4.4020   -15.8930 hn         1 FNC       0.430800
     47 H141       -29.1260    -4.9300    -9.6100 hn         1 FNC       0.312700
     48 C19        -28.1290    -6.1000   -14.6810 c3         1 FNC       0.062300
@<TRIPOS>BOND
     1     1    15 2   
     2     1    22 1   
     3     1    25 1   
     4     2    14 2   
     5     2    16 1   
     6     2    22 1   
     7     3     4 ar  
     8     3     9 1   
     9     3    18 ar  
    10     4     5 ar  
    11     4    26 1   
    12     5    17 ar  
    13     5    27 1   
    14     6    17 ar  
    15     6    18 ar  
    16     6    28 1   
    17     7    19 1   
    18     7    29 1   
    19     7    30 1   
    20     7    31 1   
    21     8     9 1   
    22     8    19 1   
    23     8    32 1   
    24     8    33 1   
    25     9    10 1   
    26     9    34 1   
    27    10    11 1   
    28    10    35 1   
    29    10    36 1   
    30    11    12 1   
    31    11    20 1   
    32    11    37 1   
    33    12    19 1   
    34    12    38 1   
    35    12    39 1   
    36    13    20 1   
    37    13    21 2   
    38    13    23 1   
    39    14    15 1   
    40    14    21 1   
    41    15    40 1   
    42    16    23 1   
    43    16    24 2   
    44    17    44 1   
    45    18    45 1   
    46    20    46 1   
    47    22    47 1   
    48    23    48 1   
    49    41    48 1   
    50    42    48 1   
    51    43    48 1   
@<TRIPOS>SUBSTRUCTURE
     1 FNC         1 TEMP              0 ****  ****    0 ROOT
