@<TRIPOS>MOLECULE
FND
   89    94     1     0     0
SMALL
abcg2


@<TRIPOS>ATOM
      1 C11          0.2330     8.3640    -2.5760 ca         1 FND      -0.136600
      2 C12          0.1840     7.9040    -3.8960 ca         1 FND      -0.141000
      3 C13          1.3480     7.5720    -4.5660 ca         1 FND       0.072100
      4 C14          2.6060     7.6840    -3.9220 ca         1 FND       0.314000
      5 C15          2.6400     8.1480    -2.6070 ca         1 FND      -0.128000
      6 C16          1.4640     8.4950    -1.9490 ca         1 FND      -0.066000
      7 C27          9.8640     8.0190    -3.1130 c          1 FND       0.589600
      8 N1           9.0620     7.0570    -3.6520 n          1 FND      -0.296000
      9 C28          9.6990     5.8060    -4.0780 c3         1 FND       0.091300
     10 C19          7.6880     7.2320    -3.9350 ca         1 FND      -0.101400
     11 C18          7.1360     6.8280    -5.1460 ca         1 FND       0.136900
     12 N4           5.8320     6.8610    -5.3970 nb         1 FND      -0.232000
     13 C26          9.2560     9.3130    -2.6820 ca         1 FND      -0.147600
     14 C25          9.9920    10.4750    -2.9260 ca         1 FND      -0.050000
     15 C24          9.5340    11.7120    -2.5030 ca         1 FND      -0.129000
     16 C23          8.3280    11.7930    -1.8130 ca         1 FND      -0.075000
     17 C22          7.5850    10.6490    -1.5630 ca         1 FND      -0.145000
     18 C21          8.0430     9.3990    -1.9880 ca         1 FND       0.300000
     19 N2           7.2740     8.2150    -1.7660 na         1 FND      -0.800100
     20 C29          6.4160     8.1110    -0.5590 c3         1 FND       0.235500
     21 C20          6.7850     7.7220    -2.9850 ca         1 FND       0.375900
     22 N3           5.4810     7.7740    -3.2290 nb         1 FND      -0.269000
     23 C17          5.0460     7.3190    -4.4050 ca         1 FND       0.392900
     24 N5           3.7080     7.3070    -4.6840 nu         1 FND      -0.920900
     25 C2          -3.3530     8.4150    -1.3410 c6         1 FND       0.102000
     26 C1          -4.4900     7.5210    -1.8430 c6         1 FND      -0.090900
     27 C3          -2.0260     6.5180    -2.1680 c6         1 FND       0.102000
     28 C4          -2.9870     6.1880    -3.3140 c6         1 FND      -0.090900
     29 C           -4.2310     7.1020    -3.2930 c6         1 FND       0.185500
     30 C32          7.2500     8.4310     0.6910 c3         1 FND      -0.090400
     31 O2           1.3910     7.1250    -5.8510 os         1 FND      -0.368100
     32 C5           0.1590     6.9410    -6.5480 c3         1 FND       0.155900
     33 C6          -1.0130     8.7900    -1.8690 c          1 FND       0.614700
     34 O3          -1.0770     9.9130    -1.3470 o          1 FND      -0.605100
     35 N6          -2.0620     7.9420    -1.8490 n          1 FND      -0.413800
     36 N7          -5.3860     6.4390    -3.9180 n3         1 FND      -0.718600
     37 C30         -5.0720     5.9900    -5.2790 c6         1 FND       0.161300
     38 C33         -6.2520     5.2780    -5.9140 c6         1 FND       0.161300
     39 N8          -7.4260     6.1390    -5.9560 n3         1 FND      -0.718600
     40 C35         -7.7460     6.5920    -4.6080 c6         1 FND       0.161300
     41 C36         -6.5660     7.3060    -3.9730 c6         1 FND       0.161300
     42 C37         -8.5570     5.4720    -6.5800 c3         1 FND       0.152100
     43 C7           5.8560     6.6930    -0.4470 c3         1 FND      -0.099100
     44 H1          -0.7670     7.8240    -4.3990 ha         1 FND       0.123000
     45 H2           3.5890     8.2340    -2.1080 ha         1 FND       0.154000
     46 H3           1.5130     8.8600    -0.9320 ha         1 FND       0.131000
     47 H4          10.4440     5.5190    -3.3410 h1         1 FND       0.048367
     48 H5           8.9360     5.0350    -4.1470 h1         1 FND       0.048367
     49 H6          10.1910     5.9190    -5.0460 h1         1 FND       0.048367
     50 H7           7.7720     6.4430    -5.9340 h4         1 FND       0.032100
     51 H8          10.9340    10.3890    -3.4510 ha         1 FND       0.134000
     52 H9          10.1120    12.6040    -2.7050 ha         1 FND       0.122000
     53 H10          7.9570    12.7520    -1.4740 ha         1 FND       0.118000
     54 H11          6.6470    10.7230    -1.0340 ha         1 FND       0.125000
     55 H12          5.5820     8.8190    -0.6260 h1         1 FND       0.043700
     56 H13          3.4870     6.9710    -5.6100 hn         1 FND       0.531000
     57 H14         -3.3430     8.4450    -0.2470 h1         1 FND       0.055200
     58 H15         -3.4910     9.4360    -1.6940 h1         1 FND       0.055200
     59 H16         -5.4130     8.0870    -1.7360 hc         1 FND       0.052700
     60 H17         -4.5920     6.6260    -1.2240 hc         1 FND       0.052700
     61 H18         -2.3130     5.9710    -1.2660 h1         1 FND       0.055200
     62 H19         -1.0100     6.2210    -2.4080 h1         1 FND       0.055200
     63 H20         -3.3060     5.1480    -3.2090 hc         1 FND       0.052700
     64 H21         -2.4690     6.2780    -4.2680 hc         1 FND       0.052700
     65 H22         -3.9920     8.0180    -3.8630 h1         1 FND       0.029700
     66 H23          7.0180     8.9590     2.7770 hc         1 FND       0.034700
     67 H24          5.7550     9.6110     1.7300 hc         1 FND       0.034700
     68 H25          5.7390     7.9040     2.1820 hc         1 FND       0.034700
     69 H26          7.9060     7.5790     0.8920 hc         1 FND       0.054200
     70 H27          7.9000     9.2830     0.5060 hc         1 FND       0.054200
     71 H28          0.4270     6.5550    -7.5280 h1         1 FND       0.044033
     72 H29         -0.4780     6.2240    -6.0270 h1         1 FND       0.044033
     73 H30         -0.3710     7.8900    -6.6570 h1         1 FND       0.044033
     74 H32         -4.2310     5.3000    -5.2510 h1         1 FND       0.038450
     75 H33         -4.7800     6.8460    -5.9120 h1         1 FND       0.038450
     76 H34         -5.9900     4.9870    -6.9340 h1         1 FND       0.038700
     77 H35         -6.4630     4.3520    -5.3480 h1         1 FND       0.038700
     78 H37         -8.0410     5.7410    -3.9670 h1         1 FND       0.038700
     79 H38         -8.5960     7.2760    -4.6570 h1         1 FND       0.038700
     80 H39         -6.8540     7.6010    -2.9660 h1         1 FND       0.038450
     81 H40         -6.3480     8.2260    -4.5420 h1         1 FND       0.038450
     82 H41         -9.4090     6.1540    -6.6260 h1         1 FND       0.032367
     83 H42         -8.2950     5.1740    -7.5960 h1         1 FND       0.032367
     84 H43         -8.8690     4.5700    -6.0270 h1         1 FND       0.032367
     85 H44          5.3410     6.5840     0.5070 hc         1 FND       0.047033
     86 H45          5.1490     6.4590    -1.2370 hc         1 FND       0.047033
     87 H46          6.6740     5.9690    -0.4790 hc         1 FND       0.047033
     88 O1          11.0780     7.8420    -3.0070 o          1 FND      -0.556000
     89 C31          6.3880     8.7390     1.9130 c3         1 FND      -0.089100
@<TRIPOS>BOND
     1     1     2 ar  
     2     1     6 ar  
     3     1    33 1   
     4     2     3 ar  
     5     2    44 1   
     6     3     4 ar  
     7     3    31 1   
     8     4     5 ar  
     9     4    24 1   
    10     5     6 ar  
    11     5    45 1   
    12     6    46 1   
    13     7     8 1   
    14     7    13 1   
    15     7    88 2   
    16     8     9 1   
    17     8    10 1   
    18     9    47 1   
    19     9    48 1   
    20     9    49 1   
    21    10    11 ar  
    22    10    21 ar  
    23    11    12 ar  
    24    11    50 1   
    25    12    23 ar  
    26    13    14 ar  
    27    13    18 ar  
    28    14    15 ar  
    29    14    51 1   
    30    15    16 ar  
    31    15    52 1   
    32    16    17 ar  
    33    16    53 1   
    34    17    18 ar  
    35    17    54 1   
    36    18    19 1   
    37    19    20 1   
    38    19    21 1   
    39    20    30 1   
    40    20    43 1   
    41    20    55 1   
    42    21    22 ar  
    43    22    23 ar  
    44    23    24 1   
    45    24    56 1   
    46    25    26 1   
    47    25    35 1   
    48    25    57 1   
    49    25    58 1   
    50    26    29 1   
    51    26    59 1   
    52    26    60 1   
    53    27    28 1   
    54    27    35 1   
    55    27    61 1   
    56    27    62 1   
    57    28    29 1   
    58    28    63 1   
    59    28    64 1   
    60    29    36 1   
    61    29    65 1   
    62    30    69 1   
    63    30    70 1   
    64    30    89 1   
    65    31    32 1   
    66    32    71 1   
    67    32    72 1   
    68    32    73 1   
    69    33    34 2   
    70    33    35 1   
    71    36    37 1   
    72    36    41 1   
    73    37    38 1   
    74    37    74 1   
    75    37    75 1   
    76    38    39 1   
    77    38    76 1   
    78    38    77 1   
    79    39    40 1   
    80    39    42 1   
    81    40    41 1   
    82    40    78 1   
    83    40    79 1   
    84    41    80 1   
    85    41    81 1   
    86    42    82 1   
    87    42    83 1   
    88    42    84 1   
    89    43    85 1   
    90    43    86 1   
    91    43    87 1   
    92    66    89 1   
    93    67    89 1   
    94    68    89 1   
@<TRIPOS>SUBSTRUCTURE
     1 FND         1 TEMP              0 ****  ****    0 ROOT
