@<TRIPOS>MOLECULE
FND
   89    94     1     0     0
SMALL
No Charge or Current Charge


@<TRIPOS>ATOM
      1 C11          0.1480     7.8910    -2.1970 ca         1 FND      -0.136600
      2 C12          0.2090     7.4500    -3.5390 ca         1 FND      -0.141000
      3 C13          1.4360     7.0380    -4.1100 ca         1 FND       0.072100
      4 C14          2.6280     7.0950    -3.3430 ca         1 FND       0.314000
      5 C15          2.5620     7.5440    -2.0090 ca         1 FND      -0.128000
      6 C16          1.3400     7.9480    -1.4470 ca         1 FND      -0.066000
      7 C27          9.8520     8.7770    -3.2090 c          1 FND       0.589600
      8 N1           9.2560     7.4790    -3.2690 n          1 FND      -0.296000
      9 C28         10.1660     6.3330    -3.5130 c3         1 FND       0.091300
     10 C19          7.8310     7.1980    -3.3130 ca         1 FND      -0.101400
     11 C18          7.3170     6.3720    -4.3380 ca         1 FND       0.136900
     12 N4           5.9970     6.1880    -4.5210 nb         1 FND      -0.232000
     13 C26          9.0480    10.0230    -2.8970 ca         1 FND      -0.147600
     14 C25          9.5410    11.2730    -3.3420 ca         1 FND      -0.050000
     15 C24          8.8550    12.4650    -3.0540 ca         1 FND      -0.129000
     16 C23          7.6710    12.4310    -2.3060 ca         1 FND      -0.075000
     17 C22          7.1830    11.2000    -1.8430 ca         1 FND      -0.145000
     18 C21          7.8690    10.0060    -2.1280 ca         1 FND       0.300000
     19 N2           7.3600     8.8260    -1.6390 na         1 FND      -0.800100
     20 C29          7.4440     8.5040    -0.1950 c3         1 FND       0.235500
     21 C20          6.8750     7.9250    -2.5630 ca         1 FND       0.375900
     22 N3           5.5570     7.7390    -2.7580 nb         1 FND      -0.269000
     23 C17          5.1840     6.8660    -3.7030 ca         1 FND       0.392900
     24 N5           3.8300     6.6700    -3.9390 nu         1 FND      -0.920900
     25 C2          -3.6580     8.4460    -1.6580 c6         1 FND       0.102000
     26 C1          -4.9170     7.7210    -2.2070 c6         1 FND      -0.090900
     27 C3          -2.4960     6.3550    -2.3280 c6         1 FND       0.102000
     28 C4          -3.4890     6.0700    -3.4850 c6         1 FND      -0.090900
     29 C           -4.6390     7.1210    -3.6150 c6         1 FND       0.185500
     30 C32          8.4200     7.3280     0.0730 c3         1 FND      -0.090400
     31 O2           1.5110     6.5770    -5.4190 os         1 FND      -0.368100
     32 C5           0.3530     6.4640    -6.2690 c3         1 FND       0.155900
     33 C6          -1.1510     8.3540    -1.5650 c          1 FND       0.614700
     34 O3          -1.1530     9.2580    -0.7370 o          1 FND      -0.605100
     35 N6          -2.3660     7.8050    -2.0350 n          1 FND      -0.413800
     36 N7          -5.8530     6.5220    -4.2720 n3         1 FND      -0.718600
     37 C30         -5.5370     5.9630    -5.6330 c6         1 FND       0.161300
     38 C33         -6.7830     5.3490    -6.3460 c6         1 FND       0.161300
     39 N8          -7.9020     6.3270    -6.4720 n3         1 FND      -0.718600
     40 C35         -8.2380     6.8800    -5.1270 c6         1 FND       0.161300
     41 C36         -6.9950     7.4930    -4.4040 c6         1 FND       0.161300
     42 C37         -9.0780     5.7670    -7.1710 c3         1 FND       0.152100
     43 C7           6.0450     8.2830     0.4260 c3         1 FND      -0.099100
     44 H1          -0.7000     7.4480    -4.1320 ha         1 FND       0.123000
     45 H2           3.4500     7.5690    -1.3890 ha         1 FND       0.154000
     46 H3           1.3180     8.2930    -0.4150 ha         1 FND       0.131000
     47 H4          11.0310     6.3880    -2.8390 h1         1 FND       0.048367
     48 H5           9.6460     5.3860    -3.3210 h1         1 FND       0.048367
     49 H6          10.5140     6.3490    -4.5530 h1         1 FND       0.048367
     50 H7           7.9710     5.8480    -5.0320 h4         1 FND       0.032100
     51 H8          10.4590    11.3250    -3.9240 ha         1 FND       0.134000
     52 H9           9.2440    13.4160    -3.4120 ha         1 FND       0.122000
     53 H10          7.1370    13.3520    -2.0810 ha         1 FND       0.118000
     54 H11          6.2690    11.1690    -1.2570 ha         1 FND       0.125000
     55 H12          7.8690     9.3850     0.3060 h1         1 FND       0.043700
     56 H13          3.6570     6.1970    -4.8270 hn         1 FND       0.531000
     57 H14         -3.7320     8.5230    -0.5640 h1         1 FND       0.055200
     58 H15         -3.6500     9.4710    -2.0550 h1         1 FND       0.055200
     59 H16         -5.7340     8.4500    -2.2180 hc         1 FND       0.052700
     60 H17         -5.2190     6.9200    -1.5180 hc         1 FND       0.052700
     61 H18         -2.8760     5.8660    -1.4190 h1         1 FND       0.055200
     62 H19         -1.5270     5.8840    -2.5390 h1         1 FND       0.055200
     63 H20         -3.9030     5.0630    -3.3390 hc         1 FND       0.052700
     64 H21         -2.9280     6.0400    -4.4280 hc         1 FND       0.052700
     65 H22         -4.2660     7.9450    -4.2430 h1         1 FND       0.029700
     66 H23          9.4920     6.2910     1.6640 hc         1 FND       0.034700
     67 H24          9.0870     7.9750     2.0540 hc         1 FND       0.034700
     68 H25          7.8270     6.7170     2.0940 hc         1 FND       0.034700
     69 H26          8.0260     6.4110    -0.3810 hc         1 FND       0.054200
     70 H27          9.3710     7.5440    -0.4290 hc         1 FND       0.054200
     71 H28          0.6400     6.0690    -7.2520 h1         1 FND       0.044033
     72 H29         -0.3870     5.7810    -5.8320 h1         1 FND       0.044033
     73 H30         -0.1170     7.4440    -6.4220 h1         1 FND       0.044033
     74 H32         -4.7770     5.1710    -5.5680 h1         1 FND       0.038450
     75 H33         -5.1210     6.7520    -6.2770 h1         1 FND       0.038450
     76 H34         -6.4770     4.9920    -7.3410 h1         1 FND       0.038700
     77 H35         -7.1120     4.4670    -5.7770 h1         1 FND       0.038700
     78 H37         -8.6560     6.0880    -4.4870 h1         1 FND       0.038700
     79 H38         -9.0090     7.6590    -5.2180 h1         1 FND       0.038700
     80 H39         -7.3420     7.8300    -3.4180 h1         1 FND       0.038450
     81 H40         -6.6710     8.3860    -4.9590 h1         1 FND       0.038450
     82 H41         -9.8610     6.5290    -7.2850 h1         1 FND       0.032367
     83 H42         -8.8010     5.4140    -8.1730 h1         1 FND       0.032367
     84 H43         -9.5010     4.9200    -6.6120 h1         1 FND       0.032367
     85 H44          6.1030     8.2530     1.5190 hc         1 FND       0.047033
     86 H45          5.3700     9.1020     0.1520 hc         1 FND       0.047033
     87 H46          5.6060     7.3410     0.0790 hc         1 FND       0.047033
     88 O1          11.0590     8.8950    -3.3980 o          1 FND      -0.556000
     89 C31          8.7210     7.0640     1.5640 c3         1 FND      -0.089100
@<TRIPOS>BOND
     1     1     2 ar  
     2     1     6 ar  
     3     1    33 1   
     4     2     3 ar  
     5     2    44 1   
     6     3     4 ar  
     7     3    31 1   
     8     4     5 ar  
     9     4    24 1   
    10     5     6 ar  
    11     5    45 1   
    12     6    46 1   
    13     7     8 1   
    14     7    13 1   
    15     7    88 2   
    16     8     9 1   
    17     8    10 1   
    18     9    47 1   
    19     9    48 1   
    20     9    49 1   
    21    10    11 ar  
    22    10    21 ar  
    23    11    12 ar  
    24    11    50 1   
    25    12    23 ar  
    26    13    14 ar  
    27    13    18 ar  
    28    14    15 ar  
    29    14    51 1   
    30    15    16 ar  
    31    15    52 1   
    32    16    17 ar  
    33    16    53 1   
    34    17    18 ar  
    35    17    54 1   
    36    18    19 1   
    37    19    20 1   
    38    19    21 1   
    39    20    30 1   
    40    20    43 1   
    41    20    55 1   
    42    21    22 ar  
    43    22    23 ar  
    44    23    24 1   
    45    24    56 1   
    46    25    26 1   
    47    25    35 1   
    48    25    57 1   
    49    25    58 1   
    50    26    29 1   
    51    26    59 1   
    52    26    60 1   
    53    27    28 1   
    54    27    35 1   
    55    27    61 1   
    56    27    62 1   
    57    28    29 1   
    58    28    63 1   
    59    28    64 1   
    60    29    36 1   
    61    29    65 1   
    62    30    69 1   
    63    30    70 1   
    64    30    89 1   
    65    31    32 1   
    66    32    71 1   
    67    32    72 1   
    68    32    73 1   
    69    33    34 2   
    70    33    35 1   
    71    36    37 1   
    72    36    41 1   
    73    37    38 1   
    74    37    74 1   
    75    37    75 1   
    76    38    39 1   
    77    38    76 1   
    78    38    77 1   
    79    39    40 1   
    80    39    42 1   
    81    40    41 1   
    82    40    78 1   
    83    40    79 1   
    84    41    80 1   
    85    41    81 1   
    86    42    82 1   
    87    42    83 1   
    88    42    84 1   
    89    43    85 1   
    90    43    86 1   
    91    43    87 1   
    92    66    89 1   
    93    67    89 1   
    94    68    89 1   
@<TRIPOS>SUBSTRUCTURE
     1 FND         1 TEMP              0 ****  ****    0 ROOT
