@<TRIPOS>MOLECULE
FNF
   62    64     1     0     0
SMALL
bcc


@<TRIPOS>ATOM
      1 O1F          4.8410    -0.7400     3.6500 o          1 FNF      -0.592100
      2 C1F          5.7030     0.0830     3.3930 c          1 FNF       0.666900
      3 N3Q          5.7170     0.9150     2.3460 ns         1 FNF      -0.566900
      4 C3Q          4.7320     0.9320     1.2930 c6         1 FNF       0.112700
      5 C2Q          5.2690     0.2940     0.0130 c6         1 FNF       0.113100
      6 O2Q          5.6280    -1.0300     0.2940 oh         1 FNF      -0.567800
      7 C4Q          4.2630     2.3600     1.0130 c6         1 FNF       0.102100
      8 O4Q          5.4090     3.1380     0.7450 oh         1 FNF      -0.614800
      9 C5Q          3.2680     2.3560    -0.1450 c6         1 FNF       0.121100
     10 C6Q          2.8480     3.7470    -0.5720 c3         1 FNF      -0.083100
     11 O5Q          3.8240     1.7160    -1.2880 os         1 FNF      -0.429600
     12 C1Q          4.2110     0.3880    -1.0930 c6         1 FNF       0.367900
     13 O3B          3.1400    -0.4350    -0.7460 os         1 FNF      -0.554200
     14 PB           1.8550    -0.5640    -1.7880 p5         1 FNF       1.465800
     15 O2B          2.3740    -0.6140    -3.1890 o          1 FNF      -0.847000
     16 O1B          0.7890     0.4020    -1.3860 o          1 FNF      -0.847000
     17 O3A          1.4740    -2.0790    -1.2680 os         1 FNF      -0.686800
     18 PA           0.0510    -2.8390    -1.5520 p5         1 FNF       1.460800
     19 O1A         -0.6080    -2.2980    -2.7800 o          1 FNF      -0.855000
     20 O2A          0.3090    -4.3070    -1.4120 o          1 FNF      -0.855000
     21 O5          -0.7310    -2.3010    -0.2090 os         1 FNF      -0.548200
     22 C5          -2.0720    -2.7030    -0.0350 c3         1 FNF       0.210400
     23 C4          -2.6500    -2.0200     1.1790 c5         1 FNF       0.146100
     24 O4          -2.7460    -0.6240     0.9520 os         1 FNF      -0.339600
     25 C3          -4.0630    -2.5020     1.5110 c5         1 FNF       0.101100
     26 O3          -3.9730    -3.5980     2.3880 oh         1 FNF      -0.581800
     27 C2          -4.7100    -1.2540     2.1110 c5         1 FNF      -0.156400
     28 C1          -3.8690    -0.0860     1.5860 c5         1 FNF       0.325500
     29 N1          -4.5480     0.8320     0.6720 n          1 FNF      -0.375000
     30 C9          -5.1050     0.3540    -0.4920 c          1 FNF       0.834500
     31 O2          -5.0980    -0.8160    -0.8100 o          1 FNF      -0.608500
     32 C6          -4.5810     2.1700     0.9680 cc         1 FNF       0.079600
     33 C7          -5.1590     3.1060     0.1960 cd         1 FNF      -0.301400
     34 C5M         -5.1890     4.5560     0.5520 c3         1 FNF      -0.005900
     35 C8          -5.7780     2.6740    -1.0410 c          1 FNF       0.741700
     36 N3          -5.6880     1.3150    -1.2780 ns         1 FNF      -0.600500
     37 O6          -6.3370     3.4070    -1.8370 o          1 FNF      -0.643500
     38 H1           6.5820     0.2340     4.0380 h5         1 FNF      -0.035800
     39 H2           6.5050     1.5380     2.2600 hn         1 FNF       0.300500
     40 H3           3.8700     0.3580     1.6390 h1         1 FNF       0.132700
     41 H4           6.1370     0.8730    -0.3320 h1         1 FNF       0.011700
     42 H5           6.1410    -1.3710    -0.4450 ho         1 FNF       0.393000
     43 H6           3.7390     2.7280     1.9050 h1         1 FNF       0.024700
     44 H7           5.1820     4.0680     0.8350 ho         1 FNF       0.389000
     45 H8           2.3750     1.8180     0.1890 h1         1 FNF       0.106700
     46 H9           3.6830     4.3240    -0.9730 hc         1 FNF       0.032367
     47 H10          2.0780     3.6920    -1.3410 hc         1 FNF       0.032367
     48 H11          2.4300     4.2930     0.2740 hc         1 FNF       0.032367
     49 H12          4.6440     0.0730    -2.0500 h2         1 FNF       0.075700
     50 H15         -2.6830    -2.4540    -0.9100 h1         1 FNF       0.028200
     51 H16         -2.1450    -3.7870     0.1220 h1         1 FNF       0.028200
     52 H17         -2.0060    -2.2080     2.0500 h1         1 FNF       0.070700
     53 H18         -4.5830    -2.7860     0.5920 h1         1 FNF       0.070700
     54 H19         -4.8350    -4.0210     2.4300 ho         1 FNF       0.386000
     55 H20         -5.7690    -1.1560     1.8800 hc         1 FNF       0.049200
     56 H21         -4.6120    -1.2900     3.1970 hc         1 FNF       0.049200
     57 H22         -3.5590     0.5490     2.4210 h2         1 FNF       0.045700
     58 H23         -4.1020     2.4410     1.9000 h4         1 FNF       0.148000
     59 H24         -4.7140     5.1650    -0.2180 hc         1 FNF       0.034367
     60 H25         -6.2130     4.9160     0.6630 hc         1 FNF       0.034367
     61 H26         -4.6690     4.7370     1.4910 hc         1 FNF       0.034367
     62 H27         -6.1030     0.9730    -2.1360 hn         1 FNF       0.336500
@<TRIPOS>BOND
     1     1     2 2   
     2     2     3 1   
     3     2    38 1   
     4     3     4 1   
     5     3    39 1   
     6     4     5 1   
     7     4     7 1   
     8     4    40 1   
     9     5     6 1   
    10     5    12 1   
    11     5    41 1   
    12     6    42 1   
    13     7     8 1   
    14     7     9 1   
    15     7    43 1   
    16     8    44 1   
    17     9    10 1   
    18     9    11 1   
    19     9    45 1   
    20    10    46 1   
    21    10    47 1   
    22    10    48 1   
    23    11    12 1   
    24    12    13 1   
    25    12    49 1   
    26    13    14 1   
    27    14    15 1   
    28    14    16 1   
    29    14    17 1   
    30    17    18 1   
    31    18    19 1   
    32    18    20 1   
    33    18    21 1   
    34    21    22 1   
    35    22    23 1   
    36    22    50 1   
    37    22    51 1   
    38    23    24 1   
    39    23    25 1   
    40    23    52 1   
    41    24    28 1   
    42    25    26 1   
    43    25    27 1   
    44    25    53 1   
    45    26    54 1   
    46    27    28 1   
    47    27    55 1   
    48    27    56 1   
    49    28    29 1   
    50    28    57 1   
    51    29    30 1   
    52    29    32 1   
    53    30    31 2   
    54    30    36 1   
    55    32    33 2   
    56    32    58 1   
    57    33    34 1   
    58    33    35 1   
    59    34    59 1   
    60    34    60 1   
    61    34    61 1   
    62    35    36 1   
    63    35    37 2   
    64    36    62 1   
@<TRIPOS>SUBSTRUCTURE
     1 FNF         1 TEMP              0 ****  ****    0 ROOT
