@<TRIPOS>MOLECULE
FNF
   62    64     1     0     0
SMALL
No Charge or Current Charge


@<TRIPOS>ATOM
      1 O1F         -0.1510     0.4510     3.4100 o          1 FNF      -0.592100
      2 C1F          0.9850     0.6140     3.8350 c          1 FNF       0.599900
      3 N3Q          2.0300     1.0230     3.0430 ns         1 FNF      -0.499900
      4 C3Q          1.9760     1.3190     1.5920 c6         1 FNF       0.112700
      5 C2Q          2.8390     0.2990     0.7690 c6         1 FNF       0.136300
      6 O2Q          2.3070    -1.0430     0.8920 oh         1 FNF      -0.690000
      7 C4Q          2.4430     2.7880     1.3420 c6         1 FNF       0.125300
      8 O4Q          3.7530     3.0050     1.9120 oh         1 FNF      -0.737000
      9 C5Q          2.4570     3.0570    -0.1910 c6         1 FNF       0.144300
     10 C6Q          2.8960     4.4990    -0.5630 c3         1 FNF      -0.083100
     11 O5Q          3.3980     2.1560    -0.8100 os         1 FNF      -0.476000
     12 C1Q          3.0250     0.7610    -0.7340 c6         1 FNF       0.414300
     13 O3B          1.8530     0.5740    -1.5340 os         1 FNF      -0.577400
     14 PB           1.8410    -0.6490    -2.5790 p5         1 FNF       1.465800
     15 O2B          3.1920    -0.7860    -3.2020 o          1 FNF      -0.847000
     16 O1B          0.7630    -0.4170    -3.5840 o          1 FNF      -0.847000
     17 O3A          1.5070    -1.7680    -1.5140 os         1 FNF      -0.686800
     18 PA           1.1950    -3.1810    -2.1570 p5         1 FNF       1.460800
     19 O1A          2.0230    -3.5290    -3.3490 o          1 FNF      -0.855000
     20 O2A          1.3470    -4.2410    -1.1170 o          1 FNF      -0.855000
     21 O5          -0.3590    -3.0020    -2.5500 os         1 FNF      -0.571400
     22 C5          -1.4360    -3.3060    -1.6410 c3         1 FNF       0.233600
     23 C4          -1.3800    -2.4510    -0.3410 c5         1 FNF       0.169300
     24 O4          -1.6000    -1.0560    -0.6280 os         1 FNF      -0.386000
     25 C3          -2.5340    -2.7460     0.6620 c5         1 FNF       0.124300
     26 O3          -2.3720    -3.9750     1.3790 oh         1 FNF      -0.704000
     27 C2          -2.4150    -1.5130     1.5980 c5         1 FNF      -0.156400
     28 C1          -1.8450    -0.4200     0.6360 c5         1 FNF       0.348700
     29 N1          -2.8310     0.6930     0.5680 n          1 FNF      -0.308000
     30 C9          -3.9700     0.6010    -0.2630 c          1 FNF       0.625000
     31 O2          -4.2730    -0.3790    -0.9230 o          1 FNF      -0.533000
     32 C6          -2.5890     1.8370     1.3310 cc         1 FNF       0.029600
     33 C7          -3.4480     2.9110     1.2790 cd         1 FNF      -0.301400
     34 C5M         -3.2430     4.1800     2.0750 c3         1 FNF      -0.005900
     35 C8          -4.6470     2.8580     0.4120 c          1 FNF       0.599200
     36 N3          -4.7810     1.6940    -0.2740 ns         1 FNF      -0.466500
     37 O6          -5.4650     3.7570     0.3010 o          1 FNF      -0.568000
     38 H1           1.2830     0.4620     4.8870 h5         1 FNF      -0.035800
     39 H2           2.9170     1.1650     3.5120 hn         1 FNF       0.300500
     40 H3           0.9360     1.2360     1.2440 h1         1 FNF       0.132700
     41 H4           3.8450     0.3010     1.2130 h1         1 FNF       0.011700
     42 H5           1.9390    -1.3000     0.0010 ho         1 FNF       0.492000
     43 H6           1.7170     3.4670     1.8140 h1         1 FNF       0.024700
     44 H7           4.3900     2.8580     1.1750 ho         1 FNF       0.488000
     45 H8           1.4500     2.8920    -0.6070 h1         1 FNF       0.106700
     46 H9           3.9250     4.7080    -0.2470 hc         1 FNF       0.032367
     47 H10          2.8430     4.6530    -1.6480 hc         1 FNF       0.032367
     48 H11          2.2410     5.2420    -0.0920 hc         1 FNF       0.032367
     49 H12          3.8610     0.1770    -1.1460 h2         1 FNF       0.075700
     50 H15         -2.3990    -3.1260    -2.1360 h1         1 FNF       0.028200
     51 H16         -1.4070    -4.3680    -1.3660 h1         1 FNF       0.028200
     52 H17         -0.4060    -2.5730     0.1510 h1         1 FNF       0.070700
     53 H18         -3.4970    -2.7350     0.1300 h1         1 FNF       0.070700
     54 H19         -3.1080    -4.0290     2.0320 ho         1 FNF       0.485000
     55 H20         -3.3780    -1.2440     2.0490 hc         1 FNF       0.049200
     56 H21         -1.7130    -1.6930     2.4200 hc         1 FNF       0.049200
     57 H22         -0.9060    -0.0120     1.0260 h2         1 FNF       0.045700
     58 H23         -1.6910     1.7820     1.9370 h4         1 FNF       0.198000
     59 H24         -3.1910     5.0560     1.4180 hc         1 FNF       0.034367
     60 H25         -4.0650     4.3380     2.7840 hc         1 FNF       0.034367
     61 H26         -2.3100     4.1480     2.6510 hc         1 FNF       0.034367
     62 H27         -5.5940     1.6240    -0.8630 hn         1 FNF       0.336500
@<TRIPOS>BOND
     1     1     2 2   
     2     2     3 1   
     3     2    38 1   
     4     3     4 1   
     5     3    39 1   
     6     4     5 1   
     7     4     7 1   
     8     4    40 1   
     9     5     6 1   
    10     5    12 1   
    11     5    41 1   
    12     6    42 1   
    13     7     8 1   
    14     7     9 1   
    15     7    43 1   
    16     8    44 1   
    17     9    10 1   
    18     9    11 1   
    19     9    45 1   
    20    10    46 1   
    21    10    47 1   
    22    10    48 1   
    23    11    12 1   
    24    12    13 1   
    25    12    49 1   
    26    13    14 1   
    27    14    15 1   
    28    14    16 1   
    29    14    17 1   
    30    17    18 1   
    31    18    19 1   
    32    18    20 1   
    33    18    21 1   
    34    21    22 1   
    35    22    23 1   
    36    22    50 1   
    37    22    51 1   
    38    23    24 1   
    39    23    25 1   
    40    23    52 1   
    41    24    28 1   
    42    25    26 1   
    43    25    27 1   
    44    25    53 1   
    45    26    54 1   
    46    27    28 1   
    47    27    55 1   
    48    27    56 1   
    49    28    29 1   
    50    28    57 1   
    51    29    30 1   
    52    29    32 1   
    53    30    31 2   
    54    30    36 1   
    55    32    33 2   
    56    32    58 1   
    57    33    34 1   
    58    33    35 1   
    59    34    59 1   
    60    34    60 1   
    61    34    61 1   
    62    35    36 1   
    63    35    37 2   
    64    36    62 1   
@<TRIPOS>SUBSTRUCTURE
     1 FNF         1 TEMP              0 ****  ****    0 ROOT
