@<TRIPOS>MOLECULE
FNG
   40    41     1     0     0
SMALL
No Charge or Current Charge


@<TRIPOS>ATOM
      1 C1          -1.6590    -0.0260    -1.0480 c6         1 FNG       0.363300
      2 O1          -0.6110     0.8980    -0.6750 os         1 FNG      -0.364100
      3 C2          -3.0140     0.7250    -1.3140 c6         1 FNG       0.115300
      4 O2          -2.9010     1.7900    -2.2970 oh         1 FNG      -0.707000
      5 C3          -3.5730     1.3100     0.0210 c6         1 FNG       0.138300
      6 O3          -4.8620     1.9110    -0.2120 oh         1 FNG      -0.670000
      7 C4          -3.6770     0.2110     1.1210 c6         1 FNG       0.146300
      8 O4          -4.7290    -0.7120     0.7670 oh         1 FNG      -0.715000
      9 C5          -2.2850    -0.4850     1.2680 c6         1 FNG       0.169300
     10 O5          -1.8340    -1.0180    -0.0080 os         1 FNG      -0.441000
     11 C6          -2.3000    -1.6420     2.3200 c3         1 FNG       0.171600
     12 O6          -1.0090    -2.2590     2.5090 oh         1 FNG      -0.717000
     13 C7           0.7040     0.4940    -0.5280 ca         1 FNG       0.130100
     14 C12          1.6230     1.4580    -0.0880 ca         1 FNG      -0.070000
     15 C11          2.9880     1.1320     0.0840 ca         1 FNG      -0.157200
     16 C10          3.4220    -0.1860    -0.1960 ca         1 FNG      -0.066000
     17 C9           2.5080    -1.1720    -0.6430 ca         1 FNG      -0.130600
     18 C8           1.1490    -0.8170    -0.8060 ca         1 FNG      -0.092000
     19 N16          3.9610     2.1730     0.5560 no         1 FNG       0.694200
     20 O17          5.1480     1.8480     0.6930 o          1 FNG      -0.396000
     21 O18          3.5340     3.3120     0.7890 o          1 FNG      -0.396000
     22 C13          2.9460    -2.5900    -0.9540 c          1 FNG       0.617700
     23 N15          4.2420    -2.9250    -0.7670 nt         1 FNG      -0.597000
     24 O14          2.1750    -3.4400    -1.3690 o          1 FNG      -0.592100
     25 H11         -1.3670    -0.5340    -1.9800 h2         1 FNG       0.084700
     26 H21         -3.7270    -0.0310    -1.6770 h1         1 FNG       0.070700
     27 HO21        -2.5620     1.3940    -3.1350 ho         1 FNG       0.514000
     28 H31         -2.8660     2.0750     0.3770 h1         1 FNG       0.068700
     29 HO31        -4.7530     2.4160    -1.0520 ho         1 FNG       0.470000
     30 H41         -3.9190     0.7030     2.0760 h1         1 FNG       0.055700
     31 HO41        -5.4390    -0.1370     0.3890 ho         1 FNG       0.524000
     32 H51         -1.5550     0.2600     1.6180 h1         1 FNG       0.065700
     33 H61         -2.6620    -1.2310     3.2720 h1         1 FNG       0.040200
     34 H62         -3.0310    -2.3950     1.9940 h1         1 FNG       0.040200
     35 HO61        -1.1420    -3.0250     3.1150 ho         1 FNG       0.508000
     36 H121         1.2600     2.4620     0.1170 ha         1 FNG       0.166000
     37 H101         4.4720    -0.4360    -0.0650 ha         1 FNG       0.151000
     38 H81          0.4490    -1.5750    -1.1460 ha         1 FNG       0.168000
     39 H151         4.5380    -3.8670    -0.9740 hn         1 FNG       0.318000
     40 H152         4.9030    -2.2460    -0.4230 hn         1 FNG       0.318000
@<TRIPOS>BOND
     1     1     2 1   
     2     1     3 1   
     3     1    10 1   
     4     1    25 1   
     5     2    13 1   
     6     3     4 1   
     7     3     5 1   
     8     3    26 1   
     9     4    27 1   
    10     5     6 1   
    11     5     7 1   
    12     5    28 1   
    13     6    29 1   
    14     7     8 1   
    15     7     9 1   
    16     7    30 1   
    17     8    31 1   
    18     9    10 1   
    19     9    11 1   
    20     9    32 1   
    21    11    12 1   
    22    11    33 1   
    23    11    34 1   
    24    12    35 1   
    25    13    14 ar  
    26    13    18 ar  
    27    14    15 ar  
    28    14    36 1   
    29    15    16 ar  
    30    15    19 1   
    31    16    17 ar  
    32    16    37 1   
    33    17    18 ar  
    34    17    22 1   
    35    18    38 1   
    36    19    20 1   
    37    19    21 1   
    38    22    23 1   
    39    22    24 2   
    40    23    39 1   
    41    23    40 1   
@<TRIPOS>SUBSTRUCTURE
     1 FNG         1 TEMP              0 ****  ****    0 ROOT
