@<TRIPOS>MOLECULE
FNG
   40    41     1     0     0
SMALL
abcg2


@<TRIPOS>ATOM
      1 C1          -1.5730     0.0090    -0.9080 c6         1 FNG       0.363300
      2 O1          -0.5720     0.8810    -0.4240 os         1 FNG      -0.364100
      3 C2          -2.8260     0.8550    -1.1510 c6         1 FNG       0.115300
      4 O2          -2.5590     1.9880    -1.9340 oh         1 FNG      -0.707000
      5 C3          -3.4210     1.3140     0.1760 c6         1 FNG       0.138300
      6 O3          -4.6520     1.9690    -0.0080 oh         1 FNG      -0.670000
      7 C4          -3.6660     0.1060     1.0770 c6         1 FNG       0.146300
      8 O4          -4.6500    -0.7490     0.5490 oh         1 FNG      -0.715000
      9 C5          -2.3650    -0.6670     1.2310 c6         1 FNG       0.169300
     10 O5          -1.8310    -1.0360    -0.0360 os         1 FNG      -0.441000
     11 C6          -2.5300    -1.9330     2.0440 c3         1 FNG       0.171600
     12 O6          -1.2530    -2.4600     2.3120 oh         1 FNG      -0.717000
     13 C7           0.7180     0.5000    -0.4340 ca         1 FNG       0.130100
     14 C12          1.6460     1.5290    -0.2880 ca         1 FNG      -0.070000
     15 C11          2.9910     1.2160    -0.2890 ca         1 FNG      -0.157200
     16 C10          3.4550    -0.0830    -0.4230 ca         1 FNG      -0.066000
     17 C9           2.5200    -1.0970    -0.5570 ca         1 FNG      -0.130600
     18 C8           1.1580    -0.8120    -0.5710 ca         1 FNG      -0.092000
     19 N16          3.9580     2.3000    -0.1570 no         1 FNG       0.694200
     20 O17          5.1320     2.0170    -0.1870 o          1 FNG      -0.396000
     21 O18          3.5370     3.4240    -0.0220 o          1 FNG      -0.396000
     22 C13          2.9250    -2.5330    -0.7240 c          1 FNG       0.617700
     23 N15          4.1150    -2.8720    -0.2120 nt         1 FNG      -0.597000
     24 O14          2.1920    -3.3200    -1.3030 o          1 FNG      -0.592100
     25 H11         -1.2370    -0.4510    -1.8450 h2         1 FNG       0.084700
     26 H21         -3.5500     0.1950    -1.6440 h1         1 FNG       0.070700
     27 HO21        -2.5650     1.7360    -2.8620 ho         1 FNG       0.514000
     28 H31         -2.7020     1.9710     0.6870 h1         1 FNG       0.068700
     29 HO31        -4.5380     2.6480    -0.6820 ho         1 FNG       0.470000
     30 H41         -3.9520     0.4720     2.0740 h1         1 FNG       0.055700
     31 HO41        -5.4300    -0.2180     0.3550 ho         1 FNG       0.524000
     32 H51         -1.6630    -0.0120     1.7650 h1         1 FNG       0.065700
     33 H61         -3.0640    -1.6690     2.9660 h1         1 FNG       0.040200
     34 H62         -3.1590    -2.6470     1.5000 h1         1 FNG       0.040200
     35 HO61        -1.3690    -3.2820     2.7970 ho         1 FNG       0.508000
     36 H121         1.2990     2.5470    -0.1840 ha         1 FNG       0.166000
     37 H101         4.5160    -0.2850    -0.4440 ha         1 FNG       0.151000
     38 H81          0.4590    -1.6310    -0.6570 ha         1 FNG       0.168000
     39 H151         4.4220    -3.8300    -0.2660 hn         1 FNG       0.318000
     40 H152         4.6290    -2.2680     0.4060 hn         1 FNG       0.318000
@<TRIPOS>BOND
     1     1     2 1   
     2     1     3 1   
     3     1    10 1   
     4     1    25 1   
     5     2    13 1   
     6     3     4 1   
     7     3     5 1   
     8     3    26 1   
     9     4    27 1   
    10     5     6 1   
    11     5     7 1   
    12     5    28 1   
    13     6    29 1   
    14     7     8 1   
    15     7     9 1   
    16     7    30 1   
    17     8    31 1   
    18     9    10 1   
    19     9    11 1   
    20     9    32 1   
    21    11    12 1   
    22    11    33 1   
    23    11    34 1   
    24    12    35 1   
    25    13    14 ar  
    26    13    18 ar  
    27    14    15 ar  
    28    14    36 1   
    29    15    16 ar  
    30    15    19 1   
    31    16    17 ar  
    32    16    37 1   
    33    17    18 ar  
    34    17    22 1   
    35    18    38 1   
    36    19    20 1   
    37    19    21 1   
    38    22    23 1   
    39    22    24 2   
    40    23    39 1   
    41    23    40 1   
@<TRIPOS>SUBSTRUCTURE
     1 FNG         1 TEMP              0 ****  ****    0 ROOT
