@<TRIPOS>MOLECULE
FNH
  108   111     1     0     0
SMALL
No Charge or Current Charge


@<TRIPOS>ATOM
      1 C1           8.4080    -0.8310    -0.3100 c          1 FNH       0.600100
      2 O2           8.6240    -1.1200    -1.4780 o          1 FNH      -0.613100
      3 C3           9.5300    -0.4270     0.6560 c3         1 FNH      -0.155400
      4 C4          10.0040     1.0260     0.3930 c3         1 FNH      -0.068400
      5 C5           8.9090     2.0760     0.6870 c3         1 FNH      -0.083400
      6 C6           9.2410     3.5000     0.1850 c3         1 FNH      -0.070400
      7 C7           8.1530     4.5550     0.5150 c3         1 FNH      -0.072400
      8 C8           6.7260     4.1480     0.0730 c3         1 FNH      -0.079400
      9 C9           5.6660     5.2590     0.2360 c3         1 FNH      -0.029100
     10 N10          7.1410    -0.8360     0.2330 ns         1 FNH      -0.491900
     11 C11          5.8870    -1.0580    -0.5280 c3         1 FNH       0.028700
     12 C12          5.3960    -2.5500    -0.4660 c6         1 FNH      -0.068700
     13 C13          6.4350    -3.5590    -1.0360 c6         1 FNH      -0.070400
     14 C17          4.9570    -2.9810     0.9660 c6         1 FNH      -0.070400
     15 C14          5.8800    -5.0050    -1.0280 c6         1 FNH      -0.075400
     16 C16          4.4060    -4.4280     0.9750 c6         1 FNH      -0.075400
     17 C15          5.4360    -5.4260     0.3940 c6         1 FNH      -0.074400
     18 C18          4.7900    -0.0500    -0.0640 c          1 FNH       0.590100
     19 O19          4.8950     0.6460     0.9380 o          1 FNH      -0.606100
     20 N20          3.6560    -0.0400    -0.8480 ns         1 FNH      -0.485900
     21 C21          2.3590     0.5720    -0.4750 c3         1 FNH       0.027700
     22 C22          2.0920     1.8920    -1.2480 c3         1 FNH      -0.033100
     23 C23          2.5070     3.1340    -0.4680 ca         1 FNH      -0.086300
     24 C24          3.8340     3.6040    -0.5130 ca         1 FNH      -0.092000
     25 C28          1.5550     3.8230     0.3070 ca         1 FNH      -0.105000
     26 C27          1.9260     4.9690     1.0280 ca         1 FNH      -0.105000
     27 C26          3.2520     5.4270     0.9880 ca         1 FNH      -0.110000
     28 C25          4.2220     4.7470     0.2250 ca         1 FNH      -0.077300
     29 C29          1.2370    -0.4700    -0.7330 c          1 FNH       0.582100
     30 O30          1.3420    -1.3730    -1.5530 o          1 FNH      -0.607100
     31 N31          0.1120    -0.3260     0.0520 ns         1 FNH      -0.488900
     32 C32         -1.0300    -1.2710     0.0800 c3         1 FNH       0.014700
     33 C33         -0.8640    -2.3430     1.1930 c3         1 FNH      -0.084400
     34 C34          0.3980    -3.2300     1.0570 c3         1 FNH      -0.074400
     35 C35          0.4800    -4.3300     2.1330 c3         1 FNH      -0.090100
     36 C37         -2.3670    -0.4930     0.2330 c          1 FNH       0.479100
     37 O38         -3.6840    -2.3260    -0.8290 o          1 FNH      -0.610100
     38 N39         -4.8680    -0.5500    -0.0110 ns         1 FNH      -0.450900
     39 C40         -6.2180    -1.0340    -0.3750 c3         1 FNH       0.000000
     40 C41         -7.3220    -0.0420     0.0570 c          1 FNH       0.592100
     41 O42         -7.0820     1.0160     0.6290 o          1 FNH      -0.609100
     42 C43         -3.6910    -1.2350    -0.2630 c          1 FNH       0.501100
     43 N44         -8.6060    -0.4380    -0.2490 ns         1 FNH      -0.453900
     44 C45         -9.8230     0.3540     0.0490 c3         1 FNH      -0.010000
     45 C46        -11.0610    -0.5400     0.1020 ca         1 FNH      -0.042300
     46 C47        -11.4790    -1.2600    -1.0360 ca         1 FNH      -0.102000
     47 C51        -11.7950    -0.6600     1.2990 ca         1 FNH      -0.102000
     48 C48        -12.6160    -2.0840    -0.9780 ca         1 FNH      -0.123000
     49 C50        -12.9320    -1.4850     1.3560 ca         1 FNH      -0.123000
     50 C49        -13.3430    -2.1970     0.2180 ca         1 FNH      -0.135000
     51 C52        -10.0090     1.5420    -0.9510 c          1 FNH       0.731000
     52 O53         -9.7220     1.3770    -2.1310 o          1 FNH      -0.706500
     53 O54        -10.4520     2.5960    -0.5120 o          1 FNH      -0.706500
     54 H31A        10.3830    -1.0980     0.5020 hc         1 FNH       0.059200
     55 H32A         9.1840    -0.4980     1.6940 hc         1 FNH       0.059200
     56 H41         10.3250     1.1130    -0.6530 hc         1 FNH       0.049700
     57 H42         10.8840     1.2400     1.0120 hc         1 FNH       0.049700
     58 H51A         8.7120     2.1030     1.7660 hc         1 FNH       0.043200
     59 H52          7.9830     1.7530     0.2010 hc         1 FNH       0.043200
     60 H61          9.3850     3.4690    -0.9020 hc         1 FNH       0.037200
     61 H62         10.1940     3.8260     0.6200 hc         1 FNH       0.037200
     62 H71          8.4260     5.5010     0.0320 hc         1 FNH       0.036200
     63 H72          8.1520     4.7420     1.5960 hc         1 FNH       0.036200
     64 H81          6.4040     3.2900     0.6760 hc         1 FNH       0.046700
     65 H82          6.7500     3.8210    -0.9740 hc         1 FNH       0.046700
     66 H91          5.8040     6.0050    -0.5560 hc         1 FNH       0.043700
     67 H92          5.8560     5.7800     1.1830 hc         1 FNH       0.043700
     68 H10          7.0620    -0.5500     1.2020 hn         1 FNH       0.331500
     69 H11          6.0790    -0.8190    -1.5820 h1         1 FNH       0.088700
     70 H12          4.5100    -2.6020    -1.1150 hc         1 FNH       0.060700
     71 H131         6.7100    -3.2770    -2.0610 hc         1 FNH       0.045700
     72 H132         7.3600    -3.5280    -0.4430 hc         1 FNH       0.045700
     73 H171         5.8060    -2.9080     1.6580 hc         1 FNH       0.045700
     74 H172         4.1820    -2.3040     1.3510 hc         1 FNH       0.045700
     75 H141         5.0300    -5.0800    -1.7200 hc         1 FNH       0.040950
     76 H142         6.6460    -5.7000    -1.3990 hc         1 FNH       0.040950
     77 H161         3.4760    -4.4740     0.3900 hc         1 FNH       0.040950
     78 H162         4.1420    -4.7200     2.0010 hc         1 FNH       0.040950
     79 H151         5.0030    -6.4360     0.3660 hc         1 FNH       0.036200
     80 H152         6.3120    -5.4800     1.0550 hc         1 FNH       0.036200
     81 H20          3.6580    -0.6630    -1.6490 hn         1 FNH       0.326500
     82 H21          2.3490     0.7780     0.6030 h1         1 FNH       0.096700
     83 H221         2.5950     1.8590    -2.2230 hc         1 FNH       0.065200
     84 H222         1.0220     1.9630    -1.4800 hc         1 FNH       0.065200
     85 H24          4.5590     3.0660    -1.1170 ha         1 FNH       0.112000
     86 H28          0.5260     3.4740     0.3500 ha         1 FNH       0.120000
     87 H27          1.1860     5.4990     1.6230 ha         1 FNH       0.116000
     88 H26          3.5280     6.3120     1.5580 ha         1 FNH       0.107000
     89 H31          0.0940     0.4650     0.6890 hn         1 FNH       0.328500
     90 H32         -1.0880    -1.7850    -0.8890 h1         1 FNH       0.123700
     91 H331        -1.7470    -2.9940     1.1920 hc         1 FNH       0.055200
     92 H332        -0.8460    -1.8440     2.1710 hc         1 FNH       0.055200
     93 H341         1.2990    -2.6090     1.1290 hc         1 FNH       0.044700
     94 H342         0.4090    -3.7000     0.0660 hc         1 FNH       0.044700
     95 H351         0.5110    -3.8890     3.1370 hc         1 FNH       0.031367
     96 H352        -0.3880    -4.9980     2.0730 hc         1 FNH       0.031367
     97 H353         1.3850    -4.9330     1.9950 hc         1 FNH       0.031367
     98 H39         -4.7850     0.3510     0.4570 hn         1 FNH       0.367500
     99 H401        -6.2800    -1.1700    -1.4620 h1         1 FNH       0.063700
    100 H402        -6.4080    -1.9980     0.1130 h1         1 FNH       0.063700
    101 H44         -8.7110    -1.3210    -0.7330 hn         1 FNH       0.298500
    102 H45         -9.6850     0.8060     1.0390 h1         1 FNH       0.063700
    103 H47        -10.9240    -1.1800    -1.9680 ha         1 FNH       0.120500
    104 H51        -11.4850    -0.1140     2.1880 ha         1 FNH       0.120500
    105 H48        -12.9330    -2.6360    -1.8610 ha         1 FNH       0.094000
    106 H50        -13.4940    -1.5720     2.2840 ha         1 FNH       0.094000
    107 H49        -14.2230    -2.8350     0.2630 ha         1 FNH       0.091000
    108 O36         -2.4110     0.6470     0.7010 o          1 FNH      -0.494100
@<TRIPOS>BOND
     1     1     2 2   
     2     1     3 1   
     3     1    10 1   
     4     3     4 1   
     5     3    54 1   
     6     3    55 1   
     7     4     5 1   
     8     4    56 1   
     9     4    57 1   
    10     5     6 1   
    11     5    58 1   
    12     5    59 1   
    13     6     7 1   
    14     6    60 1   
    15     6    61 1   
    16     7     8 1   
    17     7    62 1   
    18     7    63 1   
    19     8     9 1   
    20     8    64 1   
    21     8    65 1   
    22     9    28 1   
    23     9    66 1   
    24     9    67 1   
    25    10    11 1   
    26    10    68 1   
    27    11    12 1   
    28    11    18 1   
    29    11    69 1   
    30    12    13 1   
    31    12    14 1   
    32    12    70 1   
    33    13    15 1   
    34    13    71 1   
    35    13    72 1   
    36    14    16 1   
    37    14    73 1   
    38    14    74 1   
    39    15    17 1   
    40    15    75 1   
    41    15    76 1   
    42    16    17 1   
    43    16    77 1   
    44    16    78 1   
    45    17    79 1   
    46    17    80 1   
    47    18    19 2   
    48    18    20 1   
    49    20    21 1   
    50    20    81 1   
    51    21    22 1   
    52    21    29 1   
    53    21    82 1   
    54    22    23 1   
    55    22    83 1   
    56    22    84 1   
    57    23    24 ar  
    58    23    25 ar  
    59    24    28 ar  
    60    24    85 1   
    61    25    26 ar  
    62    25    86 1   
    63    26    27 ar  
    64    26    87 1   
    65    27    28 ar  
    66    27    88 1   
    67    29    30 2   
    68    29    31 1   
    69    31    32 1   
    70    31    89 1   
    71    32    33 1   
    72    32    36 1   
    73    32    90 1   
    74    33    34 1   
    75    33    91 1   
    76    33    92 1   
    77    34    35 1   
    78    34    93 1   
    79    34    94 1   
    80    35    95 1   
    81    35    96 1   
    82    35    97 1   
    83    36    42 1   
    84    36   108 2   
    85    37    42 2   
    86    38    39 1   
    87    38    42 1   
    88    38    98 1   
    89    39    40 1   
    90    39    99 1   
    91    39   100 1   
    92    40    41 2   
    93    40    43 1   
    94    43    44 1   
    95    43   101 1   
    96    44    45 1   
    97    44    51 1   
    98    44   102 1   
    99    45    46 ar  
   100    45    47 ar  
   101    46    48 ar  
   102    46   103 1   
   103    47    49 ar  
   104    47   104 1   
   105    48    50 ar  
   106    48   105 1   
   107    49    50 ar  
   108    49   106 1   
   109    50   107 1   
   110    51    52 1   
   111    51    53 1   
@<TRIPOS>SUBSTRUCTURE
     1 FNH         1 TEMP              0 ****  ****    0 ROOT
