@<TRIPOS>MOLECULE
FNH
  108   111     1     0     0
SMALL
bcc


@<TRIPOS>ATOM
      1 C1           8.0690    -0.7810    -0.0260 c          1 FNH       0.667100
      2 O2           8.3450    -0.9220    -1.2100 o          1 FNH      -0.613100
      3 C3           9.1270    -0.4030     0.9890 c3         1 FNH      -0.155400
      4 C4           9.6760     0.9900     0.6660 c3         1 FNH      -0.068400
      5 C5           8.6040     2.0690     0.7680 c3         1 FNH      -0.083400
      6 C6           9.0220     3.4080     0.1730 c3         1 FNH      -0.070400
      7 C7           7.9630     4.4990     0.3290 c3         1 FNH      -0.072400
      8 C8           6.5750     4.0700    -0.1360 c3         1 FNH      -0.079400
      9 C9           5.5750     5.2220    -0.1500 c3         1 FNH      -0.029100
     10 N10          6.8170    -0.9040     0.4570 ns         1 FNH      -0.558900
     11 C11          5.6490    -1.0350    -0.3760 c3         1 FNH       0.028700
     12 C12          5.0920    -2.4750    -0.4470 c6         1 FNH      -0.068700
     13 C13          6.1180    -3.4360    -1.0470 c6         1 FNH      -0.070400
     14 C17          4.5890    -3.0000     0.9000 c6         1 FNH      -0.070400
     15 C14          5.5480    -4.8440    -1.1830 c6         1 FNH      -0.075400
     16 C16          4.0360    -4.4170     0.7710 c6         1 FNH      -0.075400
     17 C15          5.0560    -5.3700     0.1600 c6         1 FNH      -0.074400
     18 C18          4.5630    -0.0960     0.1410 c          1 FNH       0.657100
     19 O19          4.5460     0.3020     1.2940 o          1 FNH      -0.606100
     20 N20          3.6160     0.1980    -0.7700 ns         1 FNH      -0.552900
     21 C21          2.3030     0.6970    -0.4450 c3         1 FNH       0.027700
     22 C22          1.9100     1.9180    -1.3060 c3         1 FNH      -0.033100
     23 C23          2.3650     3.2180    -0.7050 ca         1 FNH      -0.086300
     24 C24          3.6980     3.6210    -0.7560 ca         1 FNH      -0.110000
     25 C28          1.4450     4.0210    -0.0360 ca         1 FNH      -0.123000
     26 C27          1.8520     5.2010     0.5680 ca         1 FNH      -0.123000
     27 C26          3.1840     5.5810     0.5210 ca         1 FNH      -0.128000
     28 C25          4.1280     4.7950    -0.1390 ca         1 FNH      -0.077300
     29 C29          1.2840    -0.4150    -0.6860 c          1 FNH       0.649100
     30 O30          1.3530    -1.1260    -1.6750 o          1 FNH      -0.607100
     31 N31          0.3180    -0.4910     0.2410 ns         1 FNH      -0.555900
     32 C32         -0.8050    -1.3890     0.1670 c3         1 FNH       0.014700
     33 C33         -0.7740    -2.4380     1.2920 c3         1 FNH      -0.084400
     34 C34          0.4440    -3.3490     1.2140 c3         1 FNH      -0.074400
     35 C35          0.4450    -4.3910     2.3230 c3         1 FNH      -0.090100
     36 C37         -2.0940    -0.6030     0.2610 c          1 FNH       0.479100
     37 O38         -3.2820    -2.3510    -0.8770 o          1 FNH      -0.610100
     38 N39         -4.4840    -0.6700     0.0570 ns         1 FNH      -0.517900
     39 C40         -5.7800    -1.1350    -0.3490 c3         1 FNH       0.000000
     40 C41         -6.8460    -0.2610     0.2950 c          1 FNH       0.659100
     41 O42         -6.5520     0.7470     0.9240 o          1 FNH      -0.609100
     42 C43         -3.3600    -1.3080    -0.2470 c          1 FNH       0.568100
     43 N44         -8.0960    -0.6890     0.1260 ns         1 FNH      -0.520900
     44 C45         -9.2290     0.1090     0.5420 c3         1 FNH      -0.010000
     45 C46        -10.5110    -0.6200     0.2360 ca         1 FNH      -0.042300
     46 C47        -10.8060    -1.0230    -1.0670 ca         1 FNH      -0.120000
     47 C51        -11.4400    -0.8700     1.2410 ca         1 FNH      -0.120000
     48 C48        -11.9990    -1.6720    -1.3510 ca         1 FNH      -0.141000
     49 C50        -12.6380    -1.5120     0.9570 ca         1 FNH      -0.141000
     50 C49        -12.9200    -1.9180    -0.3400 ca         1 FNH      -0.153000
     51 C52         -9.2800     1.4990    -0.1630 c          1 FNH       0.941600
     52 O53         -8.7300     1.5900    -1.2710 o          1 FNH      -0.811800
     53 O54         -9.9220     2.3670     0.4540 o          1 FNH      -0.811800
     54 H31A         9.9300    -1.1420     0.9410 hc         1 FNH       0.059200
     55 H32A         8.7320    -0.4240     2.0070 hc         1 FNH       0.059200
     56 H41         10.0990     0.9790    -0.3420 hc         1 FNH       0.049700
     57 H42         10.5010     1.2150     1.3450 hc         1 FNH       0.049700
     58 H51A         8.3160     2.1990     1.8180 hc         1 FNH       0.043200
     59 H52          7.7020     1.7290     0.2540 hc         1 FNH       0.043200
     60 H61          9.2390     3.2650    -0.8900 hc         1 FNH       0.037200
     61 H62          9.9570     3.7440     0.6320 hc         1 FNH       0.037200
     62 H71          8.2800     5.3870    -0.2260 hc         1 FNH       0.036200
     63 H72          7.9000     4.8040     1.3790 hc         1 FNH       0.036200
     64 H81          6.1960     3.2860     0.5240 hc         1 FNH       0.046700
     65 H82          6.6450     3.6200    -1.1320 hc         1 FNH       0.046700
     66 H91          5.7630     5.8620    -1.0200 hc         1 FNH       0.043700
     67 H92          5.7440     5.8610     0.7220 hc         1 FNH       0.043700
     68 H10          6.6570    -0.6920     1.4290 hn         1 FNH       0.331500
     69 H11          5.9270    -0.7410    -1.3930 h1         1 FNH       0.088700
     70 H12          4.2340    -2.4420    -1.1320 hc         1 FNH       0.060700
     71 H131         6.4520    -3.0640    -2.0180 hc         1 FNH       0.045700
     72 H132         7.0030    -3.4720    -0.4030 hc         1 FNH       0.045700
     73 H171         5.4110    -2.9950     1.6240 hc         1 FNH       0.045700
     74 H172         3.8110    -2.3490     1.3070 hc         1 FNH       0.045700
     75 H141         4.7160    -4.8320    -1.8950 hc         1 FNH       0.040950
     76 H142         6.3060    -5.5100    -1.6020 hc         1 FNH       0.040950
     77 H161         3.1410    -4.3960     0.1400 hc         1 FNH       0.040950
     78 H162         3.7130    -4.7770     1.7510 hc         1 FNH       0.040950
     79 H151         4.6220    -6.3660     0.0450 hc         1 FNH       0.036200
     80 H152         5.9070    -5.4770     0.8420 hc         1 FNH       0.036200
     81 H20          3.7160    -0.1930    -1.6950 hn         1 FNH       0.326500
     82 H21          2.3070     0.9850     0.6070 h1         1 FNH       0.096700
     83 H221         2.3060     1.7800    -2.3140 hc         1 FNH       0.065200
     84 H222         0.8230     1.9450    -1.4060 hc         1 FNH       0.065200
     85 H24          4.4130     2.9990    -1.2820 ha         1 FNH       0.130000
     86 H28          0.4050     3.7200     0.0120 ha         1 FNH       0.138000
     87 H27          1.1310     5.8210     1.0850 ha         1 FNH       0.134000
     88 H26          3.5000     6.4960     1.0070 ha         1 FNH       0.125000
     89 H31          0.3690     0.1210     1.0410 hn         1 FNH       0.328500
     90 H32         -0.7690    -1.9050    -0.7930 h1         1 FNH       0.123700
     91 H331        -1.6800    -3.0450     1.2380 hc         1 FNH       0.055200
     92 H332        -0.7970    -1.9280     2.2600 hc         1 FNH       0.055200
     93 H341         1.3580    -2.7520     1.2760 hc         1 FNH       0.044700
     94 H342         0.4660    -3.8440     0.2390 hc         1 FNH       0.044700
     95 H351         0.4500    -3.9200     3.3070 hc         1 FNH       0.031367
     96 H352        -0.4380    -5.0300     2.2660 hc         1 FNH       0.031367
     97 H353         1.3240    -5.0320     2.2590 hc         1 FNH       0.031367
     98 H39         -4.4460     0.2020     0.5680 hn         1 FNH       0.367500
     99 H401        -5.8930    -1.0870    -1.4370 h1         1 FNH       0.063700
    100 H402        -5.9260    -2.1790    -0.0610 h1         1 FNH       0.063700
    101 H44         -8.2580    -1.5170    -0.4260 hn         1 FNH       0.298500
    102 H45         -9.1720     0.2720     1.6210 h1         1 FNH       0.063700
    103 H47        -10.1060    -0.8170    -1.8690 ha         1 FNH       0.138500
    104 H51        -11.2200    -0.5650     2.2570 ha         1 FNH       0.138500
    105 H48        -12.2140    -1.9800    -2.3660 ha         1 FNH       0.112000
    106 H50        -13.3480    -1.7000     1.7520 ha         1 FNH       0.112000
    107 H49        -13.8500    -2.4240    -0.5640 ha         1 FNH       0.109000
    108 O36         -2.1520     0.5090     0.7200 o          1 FNH      -0.494100
@<TRIPOS>BOND
     1     1     2 2   
     2     1     3 1   
     3     1    10 1   
     4     3     4 1   
     5     3    54 1   
     6     3    55 1   
     7     4     5 1   
     8     4    56 1   
     9     4    57 1   
    10     5     6 1   
    11     5    58 1   
    12     5    59 1   
    13     6     7 1   
    14     6    60 1   
    15     6    61 1   
    16     7     8 1   
    17     7    62 1   
    18     7    63 1   
    19     8     9 1   
    20     8    64 1   
    21     8    65 1   
    22     9    28 1   
    23     9    66 1   
    24     9    67 1   
    25    10    11 1   
    26    10    68 1   
    27    11    12 1   
    28    11    18 1   
    29    11    69 1   
    30    12    13 1   
    31    12    14 1   
    32    12    70 1   
    33    13    15 1   
    34    13    71 1   
    35    13    72 1   
    36    14    16 1   
    37    14    73 1   
    38    14    74 1   
    39    15    17 1   
    40    15    75 1   
    41    15    76 1   
    42    16    17 1   
    43    16    77 1   
    44    16    78 1   
    45    17    79 1   
    46    17    80 1   
    47    18    19 2   
    48    18    20 1   
    49    20    21 1   
    50    20    81 1   
    51    21    22 1   
    52    21    29 1   
    53    21    82 1   
    54    22    23 1   
    55    22    83 1   
    56    22    84 1   
    57    23    24 ar  
    58    23    25 ar  
    59    24    28 ar  
    60    24    85 1   
    61    25    26 ar  
    62    25    86 1   
    63    26    27 ar  
    64    26    87 1   
    65    27    28 ar  
    66    27    88 1   
    67    29    30 2   
    68    29    31 1   
    69    31    32 1   
    70    31    89 1   
    71    32    33 1   
    72    32    36 1   
    73    32    90 1   
    74    33    34 1   
    75    33    91 1   
    76    33    92 1   
    77    34    35 1   
    78    34    93 1   
    79    34    94 1   
    80    35    95 1   
    81    35    96 1   
    82    35    97 1   
    83    36    42 1   
    84    36   108 2   
    85    37    42 2   
    86    38    39 1   
    87    38    42 1   
    88    38    98 1   
    89    39    40 1   
    90    39    99 1   
    91    39   100 1   
    92    40    41 2   
    93    40    43 1   
    94    43    44 1   
    95    43   101 1   
    96    44    45 1   
    97    44    51 1   
    98    44   102 1   
    99    45    46 ar  
   100    45    47 ar  
   101    46    48 ar  
   102    46   103 1   
   103    47    49 ar  
   104    47   104 1   
   105    48    50 ar  
   106    48   105 1   
   107    49    50 ar  
   108    49   106 1   
   109    50   107 1   
   110    51    52 1   
   111    51    53 1   
@<TRIPOS>SUBSTRUCTURE
     1 FNH         1 TEMP              0 ****  ****    0 ROOT
