@<TRIPOS>MOLECULE
FNI
   45    49     1     0     0
SMALL
abcg2


@<TRIPOS>ATOM
      1 C1           0.5640     4.2440     0.4910 ca         1 FNI       0.297900
      2 N2          -0.6630     4.6970     0.7780 nb         1 FNI      -0.634000
      3 C3          -1.6880     3.8700     0.7260 ca         1 FNI       0.343900
      4 C4          -1.4850     2.5410     0.3860 ca         1 FNI       0.044100
      5 C5          -0.2140     2.0430     0.1100 ca         1 FNI      -0.130800
      6 C6           0.8560     2.9380     0.1510 ca         1 FNI      -0.084000
      7 O7          -2.4230     1.5940     0.2510 os         1 FNI      -0.155200
      8 C8          -1.7650     0.4480    -0.1060 cc         1 FNI      -0.180100
      9 C9          -0.4110     0.6470    -0.2070 cd         1 FNI       0.231800
     10 C10         -2.5230    -0.7620    -0.3510 c          1 FNI       0.676300
     11 N11          0.5160    -0.2620    -0.5990 nu         1 FNI      -0.817000
     12 C12          1.8650    -0.2620    -0.2330 ca         1 FNI       0.304000
     13 C13          2.2780     0.2280     1.0280 ca         1 FNI      -0.158000
     14 C14          3.5980     0.2050     1.3780 ca         1 FNI      -0.048000
     15 C15          4.5740    -0.3320     0.5090 ca         1 FNI      -0.077000
     16 C16          4.1600    -0.8580    -0.7420 ca         1 FNI       0.018000
     17 C17          2.7950    -0.7950    -1.0910 ca         1 FNI      -0.145000
     18 C18          5.9540    -0.3790     0.8490 ca         1 FNI       0.164100
     19 C19          6.8650    -0.9230    -0.0200 ca         1 FNI      -0.225000
     20 C20          6.4390    -1.4390    -1.2580 ca         1 FNI      -0.055000
     21 C21          5.1220    -1.4120    -1.6200 ca         1 FNI      -0.143000
     22 O22         -1.9730    -1.7780    -0.7500 o          1 FNI      -0.600100
     23 O23          6.2910     0.1340     2.0470 oh         1 FNI      -0.533100
     24 N24         -3.8650    -0.6640    -0.1020 ns         1 FNI      -0.305900
     25 C25         -4.8440    -1.6200    -0.2580 ca         1 FNI       0.248900
     26 N26         -6.0640    -1.1800     0.0410 nb         1 FNI      -0.244000
     27 C27         -7.0650    -2.0340    -0.0820 ca         1 FNI       0.148900
     28 N28         -6.9900    -3.2930    -0.4730 nb         1 FNI      -0.191000
     29 C29         -5.7660    -3.7220    -0.7660 ca         1 FNI       0.117900
     30 C30         -4.6370    -2.9340    -0.6810 ca         1 FNI      -0.232000
     31 H1           1.3620     4.9740     0.5370 h4         1 FNI       0.027100
     32 H3          -2.6760     4.2550     0.9520 h4         1 FNI       0.040100
     33 H6           1.8710     2.6490    -0.0750 ha         1 FNI       0.141000
     34 HN11         0.1490    -1.1130    -0.9970 hn         1 FNI       0.529000
     35 H13          1.5450     0.6040     1.7290 ha         1 FNI       0.126000
     36 H14          3.8860     0.5880     2.3470 ha         1 FNI       0.132000
     37 H17          2.4830    -1.1730    -2.0570 ha         1 FNI       0.124000
     38 H19          7.9180    -0.9580     0.2370 ha         1 FNI       0.116000
     39 H20          7.1770    -1.8610    -1.9270 ha         1 FNI       0.115000
     40 H21          4.8040    -1.8100    -2.5740 ha         1 FNI       0.119000
     41 HO23         7.2380     0.0540     2.1930 ho         1 FNI       0.469000
     42 HN24        -4.2220     0.2230     0.2270 hn         1 FNI       0.187000
     43 H27         -8.0510    -1.6560     0.1660 h5         1 FNI       0.049100
     44 H29         -5.6780    -4.7540    -1.0880 h4         1 FNI       0.025100
     45 H30         -3.6640    -3.3220    -0.9290 ha         1 FNI       0.163000
@<TRIPOS>BOND
     1     1     2 ar  
     2     1     6 ar  
     3     1    31 1   
     4     2     3 ar  
     5     3     4 ar  
     6     3    32 1   
     7     4     5 ar  
     8     4     7 1   
     9     5     6 ar  
    10     5     9 1   
    11     6    33 1   
    12     7     8 1   
    13     8     9 2   
    14     8    10 1   
    15     9    11 1   
    16    10    22 2   
    17    10    24 1   
    18    11    12 1   
    19    11    34 1   
    20    12    13 ar  
    21    12    17 ar  
    22    13    14 ar  
    23    13    35 1   
    24    14    15 ar  
    25    14    36 1   
    26    15    16 ar  
    27    15    18 ar  
    28    16    17 ar  
    29    16    21 ar  
    30    17    37 1   
    31    18    19 ar  
    32    18    23 1   
    33    19    20 ar  
    34    19    38 1   
    35    20    21 ar  
    36    20    39 1   
    37    21    40 1   
    38    23    41 1   
    39    24    25 1   
    40    24    42 1   
    41    25    26 ar  
    42    25    30 ar  
    43    26    27 ar  
    44    27    28 ar  
    45    27    43 1   
    46    28    29 ar  
    47    29    30 ar  
    48    29    44 1   
    49    30    45 1   
@<TRIPOS>SUBSTRUCTURE
     1 FNI         1 TEMP              0 ****  ****    0 ROOT
