@<TRIPOS>MOLECULE
FNI
   45    49     1     0     0
SMALL
No Charge or Current Charge


@<TRIPOS>ATOM
      1 C1           0.4140     4.5330     0.6290 ca         1 FNI       0.297900
      2 N2          -0.8500     4.9600     0.9190 nb         1 FNI      -0.634000
      3 C3          -1.8640     4.0510     0.8460 ca         1 FNI       0.343900
      4 C4          -1.6210     2.7110     0.4950 ca         1 FNI       0.044100
      5 C5          -0.3460     2.2930     0.2270 ca         1 FNI      -0.130800
      6 C6           0.7230     3.2020     0.2670 ca         1 FNI      -0.084000
      7 O7          -2.5590     1.7080     0.3530 os         1 FNI      -0.155200
      8 C8          -1.8100     0.5940    -0.0470 cc         1 FNI      -0.180100
      9 C9          -0.4630     0.9050    -0.1040 cd         1 FNI       0.231800
     10 C10         -2.4190    -0.7180    -0.3600 c          1 FNI       0.676300
     11 N11          0.5170     0.0070    -0.4410 nu         1 FNI      -0.817000
     12 C12          1.8740    -0.0890    -0.1350 ca         1 FNI       0.304000
     13 C13          2.4040     0.5050     1.0210 ca         1 FNI      -0.158000
     14 C14          3.7710     0.3800     1.3250 ca         1 FNI      -0.048000
     15 C15          4.6240    -0.3570     0.4750 ca         1 FNI      -0.077000
     16 C16          4.0820    -0.9730    -0.6770 ca         1 FNI       0.018000
     17 C17          2.7120    -0.8420    -0.9700 ca         1 FNI      -0.145000
     18 C18          6.0040    -0.5000     0.7550 ca         1 FNI       0.164100
     19 C19          6.8240    -1.2460    -0.1070 ca         1 FNI      -0.225000
     20 C20          6.2810    -1.8550    -1.2500 ca         1 FNI      -0.055000
     21 C21          4.9130    -1.7190    -1.5330 ca         1 FNI      -0.143000
     22 O22         -1.7770    -1.6900    -0.7430 o          1 FNI      -0.600100
     23 O23          6.5630     0.0780     1.8580 oh         1 FNI      -0.533100
     24 N24         -3.7860    -0.7200    -0.1840 ns         1 FNI      -0.305900
     25 C25         -4.7500    -1.7310    -0.3620 ca         1 FNI       0.248900
     26 N26         -6.0030    -1.3020    -0.1170 nb         1 FNI      -0.244000
     27 C27         -6.9920    -2.2090    -0.2630 ca         1 FNI       0.148900
     28 N28         -6.8500    -3.5010    -0.6300 nb         1 FNI      -0.191000
     29 C29         -5.5930    -3.9230    -0.8720 ca         1 FNI       0.117900
     30 C30         -4.4910    -3.0600    -0.7490 ca         1 FNI      -0.232000
     31 H1           1.2000     5.2850     0.6810 h4         1 FNI       0.027100
     32 H3          -2.8710     4.4060     1.0640 h4         1 FNI       0.040100
     33 H6           1.7400     2.9160     0.0200 ha         1 FNI       0.141000
     34 HN11         0.1330    -0.8330    -0.8860 hn         1 FNI       0.529000
     35 H13          1.7560     1.0520     1.6990 ha         1 FNI       0.126000
     36 H14          4.1570     0.8530     2.2250 ha         1 FNI       0.132000
     37 H17          2.3010    -1.3160    -1.8570 ha         1 FNI       0.124000
     38 H19          7.8850    -1.3590     0.1020 ha         1 FNI       0.116000
     39 H20          6.9190    -2.4330    -1.9160 ha         1 FNI       0.115000
     40 H21          4.5000    -2.1940    -2.4200 ha         1 FNI       0.119000
     41 HO23         7.5190    -0.1400     1.8670 ho         1 FNI       0.469000
     42 HN24        -4.1660     0.1630     0.1280 hn         1 FNI       0.187000
     43 H27         -8.0050    -1.8650    -0.0660 h5         1 FNI       0.049100
     44 H29         -5.4690    -4.9640    -1.1680 h4         1 FNI       0.025100
     45 H30         -3.4900    -3.4260    -0.9490 ha         1 FNI       0.163000
@<TRIPOS>BOND
     1     1     2 ar  
     2     1     6 ar  
     3     1    31 1   
     4     2     3 ar  
     5     3     4 ar  
     6     3    32 1   
     7     4     5 ar  
     8     4     7 1   
     9     5     6 ar  
    10     5     9 1   
    11     6    33 1   
    12     7     8 1   
    13     8     9 2   
    14     8    10 1   
    15     9    11 1   
    16    10    22 2   
    17    10    24 1   
    18    11    12 1   
    19    11    34 1   
    20    12    13 ar  
    21    12    17 ar  
    22    13    14 ar  
    23    13    35 1   
    24    14    15 ar  
    25    14    36 1   
    26    15    16 ar  
    27    15    18 ar  
    28    16    17 ar  
    29    16    21 ar  
    30    17    37 1   
    31    18    19 ar  
    32    18    23 1   
    33    19    20 ar  
    34    19    38 1   
    35    20    21 ar  
    36    20    39 1   
    37    21    40 1   
    38    23    41 1   
    39    24    25 1   
    40    24    42 1   
    41    25    26 ar  
    42    25    30 ar  
    43    26    27 ar  
    44    27    28 ar  
    45    27    43 1   
    46    28    29 ar  
    47    29    30 ar  
    48    29    44 1   
    49    30    45 1   
@<TRIPOS>SUBSTRUCTURE
     1 FNI         1 TEMP              0 ****  ****    0 ROOT
