@<TRIPOS>MOLECULE
FNJ
   46    48     1     0     0
SMALL
No Charge or Current Charge


@<TRIPOS>ATOM
      1 CAQ          2.5130     0.6940    -1.3380 ca         1 FNJ      -0.065500
      2 CAR          3.9050     0.5250    -1.2350 ca         1 FNJ      -0.173500
      3 CAS          4.5370     0.6500     0.0110 ca         1 FNJ       0.136100
      4 OAX          5.8850     0.4880     0.1190 oh         1 FNJ      -0.536100
      5 CAT          3.7800     0.9450     1.1540 ca         1 FNJ      -0.173500
      6 CAU          2.3880     1.1140     1.0540 ca         1 FNJ      -0.065500
      7 CAP          1.7420     0.9880    -0.1940 ca         1 FNJ      -0.107300
      8 CAI          0.2220     1.1660    -0.3180 c3         1 FNJ      -0.000400
      9 CAV         -0.2070     2.6140     0.0550 c3         1 FNJ      -0.072400
     10 CAW          0.4770     3.7080    -0.7920 c3         1 FNJ      -0.089100
     11 CAH         -0.5470     0.0910     0.5200 c3         1 FNJ       0.040900
     12 CAE         -2.0710     0.1690     0.3630 ca         1 FNJ      -0.107300
     13 CAD         -2.6830     0.1060    -0.9080 ca         1 FNJ      -0.067500
     14 CAC         -4.0820     0.1780    -1.0310 ca         1 FNJ      -0.174000
     15 CAB         -4.8820     0.3090     0.1150 ca         1 FNJ       0.137100
     16 OAG         -6.2380     0.3780     0.0030 oh         1 FNJ      -0.534100
     17 CAA         -4.2850     0.3650     1.3820 ca         1 FNJ      -0.174000
     18 CAF         -2.8870     0.2940     1.5080 ca         1 FNJ      -0.067500
     19 CAJ         -0.0650    -1.3460     0.2710 ca         1 FNJ      -0.068300
     20 CAK          0.1610    -1.8400    -1.0330 ca         1 FNJ      -0.101000
     21 CAL          0.6000    -3.1610    -1.2300 ca         1 FNJ      -0.109500
     22 CAM          0.8130    -4.0040    -0.1280 ca         1 FNJ      -0.111000
     23 CAN          0.5840    -3.5260     1.1720 ca         1 FNJ      -0.109500
     24 CAO          0.1450    -2.2060     1.3700 ca         1 FNJ      -0.101000
     25 H1           2.0350     0.5940    -2.3100 ha         1 FNJ       0.111000
     26 H2           4.4840     0.2970    -2.1270 ha         1 FNJ       0.118500
     27 H3           6.2450     0.2890    -0.7720 ho         1 FNJ       0.462000
     28 H4           4.2700     1.0430     2.1190 ha         1 FNJ       0.118500
     29 H5           1.8150     1.3430     1.9490 ha         1 FNJ       0.111000
     30 H6          -0.0560     1.0300    -1.3690 hc         1 FNJ       0.049700
     31 H7          -1.2920     2.7170    -0.0730 hc         1 FNJ       0.042700
     32 H8          -0.0000     2.8020     1.1150 hc         1 FNJ       0.042700
     33 H9           0.0910     4.6970    -0.5200 hc         1 FNJ       0.033700
     34 H10          1.5620     3.7120    -0.6300 hc         1 FNJ       0.033700
     35 H11          0.2870     3.5480    -1.8600 hc         1 FNJ       0.033700
     36 H12         -0.3160     0.3280     1.5660 hc         1 FNJ       0.055700
     37 H13         -2.0800     0.0000    -1.8060 ha         1 FNJ       0.112500
     38 H14         -4.5350     0.1290    -2.0180 ha         1 FNJ       0.120000
     39 H15         -6.4740     0.3220    -0.9470 ho         1 FNJ       0.463000
     40 H16         -4.9050     0.4640     2.2690 ha         1 FNJ       0.120000
     41 H17         -2.4390     0.3380     2.4980 ha         1 FNJ       0.112500
     42 H18          0.0000    -1.2070    -1.9010 ha         1 FNJ       0.109000
     43 H19          0.7750    -3.5300    -2.2380 ha         1 FNJ       0.110000
     44 H20          1.1520    -5.0270    -0.2810 ha         1 FNJ       0.110000
     45 H21          0.7450    -4.1790     2.0270 ha         1 FNJ       0.110000
     46 H22         -0.0310    -1.8510     2.3830 ha         1 FNJ       0.109000
@<TRIPOS>BOND
     1     1     2 ar  
     2     1     7 ar  
     3     1    25 1   
     4     2     3 ar  
     5     2    26 1   
     6     3     4 1   
     7     3     5 ar  
     8     4    27 1   
     9     5     6 ar  
    10     5    28 1   
    11     6     7 ar  
    12     6    29 1   
    13     7     8 1   
    14     8     9 1   
    15     8    11 1   
    16     8    30 1   
    17     9    10 1   
    18     9    31 1   
    19     9    32 1   
    20    10    33 1   
    21    10    34 1   
    22    10    35 1   
    23    11    12 1   
    24    11    19 1   
    25    11    36 1   
    26    12    13 ar  
    27    12    18 ar  
    28    13    14 ar  
    29    13    37 1   
    30    14    15 ar  
    31    14    38 1   
    32    15    16 1   
    33    15    17 ar  
    34    16    39 1   
    35    17    18 ar  
    36    17    40 1   
    37    18    41 1   
    38    19    20 ar  
    39    19    24 ar  
    40    20    21 ar  
    41    20    42 1   
    42    21    22 ar  
    43    21    43 1   
    44    22    23 ar  
    45    22    44 1   
    46    23    24 ar  
    47    23    45 1   
    48    24    46 1   
@<TRIPOS>SUBSTRUCTURE
     1 FNJ         1 TEMP              0 ****  ****    0 ROOT
