@<TRIPOS>MOLECULE
FNJ
   46    48     1     0     0
SMALL
bcc


@<TRIPOS>ATOM
      1 CAQ          2.4610     0.4190    -1.2060 ca         1 FNJ      -0.083500
      2 CAR          3.8230     0.1890    -1.0690 ca         1 FNJ      -0.191500
      3 CAS          4.4640     0.5060     0.1220 ca         1 FNJ       0.136100
      4 OAX          5.7870     0.3090     0.3180 oh         1 FNJ      -0.497100
      5 CAT          3.7230     1.0520     1.1670 ca         1 FNJ      -0.191500
      6 CAU          2.3640     1.2740     1.0110 ca         1 FNJ      -0.083500
      7 CAP          1.7050     0.9660    -0.1780 ca         1 FNJ      -0.107300
      8 CAI          0.2200     1.1920    -0.3410 c3         1 FNJ      -0.000400
      9 CAV         -0.1830     2.6300     0.0040 c3         1 FNJ      -0.072400
     10 CAW          0.5080     3.6730    -0.8610 c3         1 FNJ      -0.089100
     11 CAH         -0.5750     0.1690     0.5020 c3         1 FNJ       0.040900
     12 CAE         -2.0780     0.2260     0.3080 ca         1 FNJ      -0.107300
     13 CAD         -2.6890     0.5730    -0.8920 ca         1 FNJ      -0.085500
     14 CAC         -4.0700     0.5590    -1.0340 ca         1 FNJ      -0.192000
     15 CAB         -4.8800     0.1920     0.0340 ca         1 FNJ       0.137100
     16 OAG         -6.2280     0.1640    -0.0440 oh         1 FNJ      -0.495100
     17 CAA         -4.2880    -0.1580     1.2450 ca         1 FNJ      -0.192000
     18 CAF         -2.9090    -0.1360     1.3670 ca         1 FNJ      -0.085500
     19 CAJ         -0.0720    -1.2420     0.2800 ca         1 FNJ      -0.068300
     20 CAK         -0.2160    -1.8740    -0.9530 ca         1 FNJ      -0.119000
     21 CAL          0.2710    -3.1570    -1.1550 ca         1 FNJ      -0.127500
     22 CAM          0.9090    -3.8340    -0.1230 ca         1 FNJ      -0.129000
     23 CAN          1.0550    -3.2150     1.1100 ca         1 FNJ      -0.127500
     24 CAO          0.5680    -1.9290     1.3050 ca         1 FNJ      -0.119000
     25 H1           1.9790     0.1570    -2.1400 ha         1 FNJ       0.129000
     26 H2           4.3790    -0.2410    -1.8950 ha         1 FNJ       0.136500
     27 H3           6.1920    -0.0440    -0.4810 ho         1 FNJ       0.423000
     28 H4           4.2130     1.3060     2.0990 ha         1 FNJ       0.136500
     29 H5           1.8190     1.7020     1.8430 ha         1 FNJ       0.129000
     30 H6          -0.0140     1.0240    -1.3990 hc         1 FNJ       0.049700
     31 H7          -1.2650     2.7340    -0.1060 hc         1 FNJ       0.042700
     32 H8           0.0290     2.8200     1.0600 hc         1 FNJ       0.042700
     33 H9           0.1680     4.6780    -0.6080 hc         1 FNJ       0.033700
     34 H10          1.5910     3.6490    -0.7370 hc         1 FNJ       0.033700
     35 H11          0.2950     3.5110    -1.9200 hc         1 FNJ       0.033700
     36 H12         -0.3870     0.4140     1.5540 hc         1 FNJ       0.055700
     37 H13         -2.0980     0.8770    -1.7470 ha         1 FNJ       0.130500
     38 H14         -4.5110     0.8450    -1.9830 ha         1 FNJ       0.138000
     39 H15         -6.5180     0.4410    -0.9190 ho         1 FNJ       0.424000
     40 H16         -4.9060    -0.4400     2.0880 ha         1 FNJ       0.138000
     41 H17         -2.4670    -0.4140     2.3180 ha         1 FNJ       0.130500
     42 H18         -0.7140    -1.3630    -1.7690 ha         1 FNJ       0.127000
     43 H19          0.1510    -3.6300    -2.1220 ha         1 FNJ       0.128000
     44 H20          1.2870    -4.8360    -0.2810 ha         1 FNJ       0.128000
     45 H21          1.5500    -3.7310     1.9230 ha         1 FNJ       0.128000
     46 H22          0.6930    -1.4490     2.2690 ha         1 FNJ       0.127000
@<TRIPOS>BOND
     1     1     2 ar  
     2     1     7 ar  
     3     1    25 1   
     4     2     3 ar  
     5     2    26 1   
     6     3     4 1   
     7     3     5 ar  
     8     4    27 1   
     9     5     6 ar  
    10     5    28 1   
    11     6     7 ar  
    12     6    29 1   
    13     7     8 1   
    14     8     9 1   
    15     8    11 1   
    16     8    30 1   
    17     9    10 1   
    18     9    31 1   
    19     9    32 1   
    20    10    33 1   
    21    10    34 1   
    22    10    35 1   
    23    11    12 1   
    24    11    19 1   
    25    11    36 1   
    26    12    13 ar  
    27    12    18 ar  
    28    13    14 ar  
    29    13    37 1   
    30    14    15 ar  
    31    14    38 1   
    32    15    16 1   
    33    15    17 ar  
    34    16    39 1   
    35    17    18 ar  
    36    17    40 1   
    37    18    41 1   
    38    19    20 ar  
    39    19    24 ar  
    40    20    21 ar  
    41    20    42 1   
    42    21    22 ar  
    43    21    43 1   
    44    22    23 ar  
    45    22    44 1   
    46    23    24 ar  
    47    23    45 1   
    48    24    46 1   
@<TRIPOS>SUBSTRUCTURE
     1 FNJ         1 TEMP              0 ****  ****    0 ROOT
