@<TRIPOS>MOLECULE
FNN
   15    15     1     0     0
SMALL
No Charge or Current Charge


@<TRIPOS>ATOM
      1 F            0.5370     2.0960     0.0180 f          1 FNN      -0.130000
      2 N            2.0430    -0.3600     0.0440 no         1 FNN       0.712200
      3 C1          -2.2500    -0.2460    -0.1750 ca         1 FNN       0.223100
      4 O1           2.5570    -1.3460     0.5870 o          1 FNN      -0.396500
      5 C2          -1.5260     0.9500    -0.1290 ca         1 FNN      -0.290000
      6 O2           2.6910     0.5030    -0.5600 o          1 FNN      -0.396500
      7 C3          -0.1250     0.9200    -0.0570 ca         1 FNN       0.302000
      8 C4           0.5610    -0.3120    -0.0310 ca         1 FNN      -0.281200
      9 C5          -0.1780    -1.5160    -0.0680 ca         1 FNN       0.017000
     10 C6          -1.5800    -1.4750    -0.1430 ca         1 FNN      -0.181000
     11 HO          -3.8960     0.7170    -0.2570 ho         1 FNN       0.482000
     12 H2          -2.0350     1.9090    -0.1440 ha         1 FNN       0.145000
     13 H5           0.3260    -2.4820    -0.0480 ha         1 FNN       0.157000
     14 H6          -2.1490    -2.4000    -0.1760 ha         1 FNN       0.148000
     15 O           -3.6080    -0.2200    -0.2450 oh         1 FNN      -0.511100
@<TRIPOS>BOND
     1     1     7 1   
     2     2     4 1   
     3     2     6 1   
     4     2     8 1   
     5     3     5 ar  
     6     3    10 ar  
     7     3    15 1   
     8     5     7 ar  
     9     5    12 1   
    10     7     8 ar  
    11     8     9 ar  
    12     9    10 ar  
    13     9    13 1   
    14    10    14 1   
    15    11    15 1   
@<TRIPOS>SUBSTRUCTURE
     1 FNN         1 TEMP              0 ****  ****    0 ROOT
