@<TRIPOS>MOLECULE
FNN
   15    15     1     0     0
SMALL
bcc


@<TRIPOS>ATOM
      1 F            0.5210     2.0750    -0.0970 f          1 FNN      -0.094900
      2 N            1.9960    -0.3910     0.0160 no         1 FNN       0.332200
      3 C1          -2.2250    -0.2270    -0.1610 ca         1 FNN       0.223100
      4 O1           2.4870    -1.4800     0.2160 o          1 FNN      -0.206500
      5 C2          -1.4940     0.9590    -0.1630 ca         1 FNN      -0.308000
      6 O2           2.6470     0.6160    -0.1440 o          1 FNN      -0.206500
      7 C3          -0.1190     0.9150    -0.1040 ca         1 FNN       0.266900
      8 C4           0.5610    -0.3030    -0.0380 ca         1 FNN      -0.281200
      9 C5          -0.1870    -1.4820    -0.0310 ca         1 FNN      -0.001000
     10 C6          -1.5580    -1.4550    -0.0950 ca         1 FNN      -0.199000
     11 HO          -3.9170     0.6460    -0.2760 ho         1 FNN       0.443000
     12 H2          -1.9870     1.9230    -0.2080 ha         1 FNN       0.163000
     13 H5           0.3190    -2.4340     0.0180 ha         1 FNN       0.175000
     14 H6          -2.1230    -2.3770    -0.0960 ha         1 FNN       0.166000
     15 O           -3.5540    -0.2460    -0.2200 oh         1 FNN      -0.472100
@<TRIPOS>BOND
     1     1     7 1   
     2     2     4 1   
     3     2     6 1   
     4     2     8 1   
     5     3     5 ar  
     6     3    10 ar  
     7     3    15 1   
     8     5     7 ar  
     9     5    12 1   
    10     7     8 ar  
    11     8     9 ar  
    12     9    10 ar  
    13     9    13 1   
    14    10    14 1   
    15    11    15 1   
@<TRIPOS>SUBSTRUCTURE
     1 FNN         1 TEMP              0 ****  ****    0 ROOT
