@<TRIPOS>MOLECULE
FNO
   37    38     1     0     0
SMALL
abcg2


@<TRIPOS>ATOM
      1 C10        -22.6030    -3.1230   -29.1390 c          1 FNO       0.600900
      2 C13        -22.4380    -0.2890   -29.5990 c          1 FNO       0.587900
      3 C15        -22.9180    -2.6780   -26.7330 ca         1 FNO       0.192100
      4 C17        -20.1670    -4.6010   -34.0990 c2         1 FNO      -0.105400
      5 C20        -19.6450    -3.2190   -34.3550 c3         1 FNO      -0.057900
      6 C21        -20.0660    -5.5310   -35.2730 c3         1 FNO      -0.057900
      7 C06        -22.2850    -3.5410   -31.6710 c3         1 FNO       0.219500
      8 C07        -22.4190    -2.5840   -30.5050 cc         1 FNO      -0.153400
      9 C08        -20.8870    -4.1800   -31.7080 c3         1 FNO      -0.069200
     10 C09        -22.7230    -2.1910   -28.0250 ca         1 FNO      -0.231600
     11 C11        -22.6420    -0.7930   -28.2490 ca         1 FNO      -0.233600
     12 C12        -22.3440    -1.2610   -30.6920 cd         1 FNO      -0.220200
     13 C14        -20.6970    -5.0080   -32.9430 c2         1 FNO      -0.221200
     14 C16        -22.7580     0.0990   -27.1860 ca         1 FNO       0.190100
     15 C18        -23.0390    -1.7590   -25.6690 ca         1 FNO      -0.098000
     16 C19        -22.9620    -0.4130   -25.8870 ca         1 FNO      -0.094000
     17 O01        -23.3240    -4.4820   -31.7180 oh         1 FNO      -0.641000
     18 O02        -22.6470    -4.3420   -28.9590 o          1 FNO      -0.575100
     19 O03        -22.9980    -3.9680   -26.4340 oh         1 FNO      -0.533100
     20 O04        -22.3530     0.9150   -29.8400 o          1 FNO      -0.553100
     21 O05        -22.6880     1.4160   -27.3260 oh         1 FNO      -0.533100
     22 H1         -19.6790    -2.5700   -33.4810 hc         1 FNO       0.040200
     23 H2         -18.6110    -3.2570   -34.7060 hc         1 FNO       0.040200
     24 H3         -20.2220    -2.7360   -35.1470 hc         1 FNO       0.040200
     25 H4         -20.4600    -6.5210   -35.0470 hc         1 FNO       0.040200
     26 H5         -20.6130    -5.1360   -36.1320 hc         1 FNO       0.040200
     27 H6         -19.0270    -5.6430   -35.5930 hc         1 FNO       0.040200
     28 H7         -22.3880    -2.9410   -32.5800 h1         1 FNO       0.078700
     29 H8         -20.7450    -4.8060   -30.8230 hc         1 FNO       0.055200
     30 H9         -20.1450    -3.3830   -31.6400 hc         1 FNO       0.055200
     31 H10        -22.2090    -0.8500   -31.6870 ha         1 FNO       0.209000
     32 H11        -21.0550    -6.0320   -32.8850 ha         1 FNO       0.175000
     33 H12        -23.1940    -2.1380   -24.6670 ha         1 FNO       0.141000
     34 H13        -23.0550     0.2780   -25.0590 ha         1 FNO       0.141000
     35 H14        -23.2030    -5.1060   -30.9930 ho         1 FNO       0.460000
     36 H15        -22.8880    -4.4820   -27.2630 ho         1 FNO       0.515000
     37 H16        -22.5420     1.6110   -28.2790 ho         1 FNO       0.516000
@<TRIPOS>BOND
     1     1     8 1   
     2     1    10 1   
     3     1    18 2   
     4     2    11 1   
     5     2    12 1   
     6     2    20 2   
     7     3    10 ar  
     8     3    15 ar  
     9     3    19 1   
    10     4     5 1   
    11     4     6 1   
    12     4    13 2   
    13     5    22 1   
    14     5    23 1   
    15     5    24 1   
    16     6    25 1   
    17     6    26 1   
    18     6    27 1   
    19     7     8 1   
    20     7     9 1   
    21     7    17 1   
    22     7    28 1   
    23     8    12 2   
    24     9    13 1   
    25     9    29 1   
    26     9    30 1   
    27    10    11 ar  
    28    11    14 ar  
    29    12    31 1   
    30    13    32 1   
    31    14    16 ar  
    32    14    21 1   
    33    15    16 ar  
    34    15    33 1   
    35    16    34 1   
    36    17    35 1   
    37    19    36 1   
    38    21    37 1   
@<TRIPOS>SUBSTRUCTURE
     1 FNO         1 TEMP              0 ****  ****    0 ROOT
