@<TRIPOS>MOLECULE
FNO
   37    38     1     0     0
SMALL
No Charge or Current Charge


@<TRIPOS>ATOM
      1 C10        -22.6340    -3.1450   -29.1830 c          1 FNO       0.600900
      2 C13        -22.4630    -0.2150   -29.6140 c          1 FNO       0.587900
      3 C15        -22.9160    -2.6660   -26.6920 ca         1 FNO       0.192100
      4 C17        -20.1560    -4.6430   -34.1390 c2         1 FNO      -0.105400
      5 C20        -19.6910    -3.2240   -34.4330 c3         1 FNO      -0.057900
      6 C21        -19.9570    -5.5690   -35.3250 c3         1 FNO      -0.057900
      7 C06        -22.2900    -3.5300   -31.6950 c3         1 FNO       0.219500
      8 C07        -22.4260    -2.5580   -30.5390 cc         1 FNO      -0.153400
      9 C08        -20.9190    -4.2500   -31.7130 c3         1 FNO      -0.069200
     10 C09        -22.7360    -2.1770   -28.0130 ca         1 FNO      -0.231600
     11 C11        -22.6560    -0.7650   -28.2210 ca         1 FNO      -0.233600
     12 C12        -22.3540    -1.1860   -30.7100 cd         1 FNO      -0.220200
     13 C14        -20.6900    -5.0650   -32.9780 c2         1 FNO      -0.221200
     14 C16        -22.7570     0.1090   -27.1090 ca         1 FNO       0.190100
     15 C18        -23.0120    -1.7830   -25.6090 ca         1 FNO      -0.098000
     16 C19        -22.9330    -0.4000   -25.8160 ca         1 FNO      -0.094000
     17 O01        -23.3460    -4.4960   -31.6800 oh         1 FNO      -0.641000
     18 O02        -22.7320    -4.3560   -28.9990 o          1 FNO      -0.575100
     19 O03        -22.9980    -4.0020   -26.4370 oh         1 FNO      -0.533100
     20 O04        -22.3960     0.9900   -29.8290 o          1 FNO      -0.553100
     21 O05        -22.6850     1.4610   -27.2640 oh         1 FNO      -0.533100
     22 H1         -19.8910    -2.5290   -33.6100 hc         1 FNO       0.040200
     23 H2         -18.6130    -3.1970   -34.6290 hc         1 FNO       0.040200
     24 H3         -20.1990    -2.8220   -35.3180 hc         1 FNO       0.040200
     25 H4         -20.2920    -6.5900   -35.1060 hc         1 FNO       0.040200
     26 H5         -20.5210    -5.2190   -36.1980 hc         1 FNO       0.040200
     27 H6         -18.9000    -5.6250   -35.6100 hc         1 FNO       0.040200
     28 H7         -22.3550    -2.9480   -32.6250 h1         1 FNO       0.078700
     29 H8         -20.8270    -4.9000   -30.8350 hc         1 FNO       0.055200
     30 H9         -20.1290    -3.4980   -31.5980 hc         1 FNO       0.055200
     31 H10        -22.2060    -0.7340   -31.6850 ha         1 FNO       0.209000
     32 H11        -21.0000    -6.1070   -32.8760 ha         1 FNO       0.175000
     33 H12        -23.1490    -2.1730   -24.6040 ha         1 FNO       0.141000
     34 H13        -23.0090     0.2810   -24.9720 ha         1 FNO       0.141000
     35 H14        -23.3220    -4.8870   -30.7750 ho         1 FNO       0.460000
     36 H15        -22.9180    -4.4560   -27.3150 ho         1 FNO       0.515000
     37 H16        -22.5630     1.6240   -28.2350 ho         1 FNO       0.516000
@<TRIPOS>BOND
     1     1     8 1   
     2     1    10 1   
     3     1    18 2   
     4     2    11 1   
     5     2    12 1   
     6     2    20 2   
     7     3    10 ar  
     8     3    15 ar  
     9     3    19 1   
    10     4     5 1   
    11     4     6 1   
    12     4    13 2   
    13     5    22 1   
    14     5    23 1   
    15     5    24 1   
    16     6    25 1   
    17     6    26 1   
    18     6    27 1   
    19     7     8 1   
    20     7     9 1   
    21     7    17 1   
    22     7    28 1   
    23     8    12 2   
    24     9    13 1   
    25     9    29 1   
    26     9    30 1   
    27    10    11 ar  
    28    11    14 ar  
    29    12    31 1   
    30    13    32 1   
    31    14    16 ar  
    32    14    21 1   
    33    15    16 ar  
    34    15    33 1   
    35    16    34 1   
    36    17    35 1   
    37    19    36 1   
    38    21    37 1   
@<TRIPOS>SUBSTRUCTURE
     1 FNO         1 TEMP              0 ****  ****    0 ROOT
