@<TRIPOS>MOLECULE
FNP
   30    31     1     0     0
SMALL
abcg2


@<TRIPOS>ATOM
      1 C1          -0.3910     0.7350     3.6350 c3         1 FNP      -0.063700
      2 C2           0.4400    -0.5320    -2.3830 ca         1 FNP      -0.089800
      3 C3           1.8510    -0.4120    -2.3740 ca         1 FNP      -0.057500
      4 C4           2.5200    -0.1280    -1.2170 ca         1 FNP      -0.169500
      5 C5           1.8220     0.0730    -0.0040 ca         1 FNP      -0.046000
      6 C6           2.4760     0.3650     1.2150 ca         1 FNP      -0.169500
      7 C7           1.7630     0.5680     2.3630 ca         1 FNP      -0.057500
      8 C8           0.3480     0.5050     2.3570 ca         1 FNP      -0.089800
      9 C9          -0.3030     0.2050     1.1900 ca         1 FNP      -0.067500
     10 C10          0.4090    -0.0180    -0.0120 ca         1 FNP      -0.043000
     11 C11         -0.2560    -0.3230    -1.2220 ca         1 FNP      -0.067500
     12 F1          -1.6850     1.1190     3.3430 f          1 FNP      -0.171750
     13 F2           0.1630     1.8440     4.2550 f          1 FNP      -0.171750
     14 P1          -0.4040    -0.7300     4.8270 p5         1 FNP       1.293000
     15 OP1         -1.1710    -0.1990     6.0370 o          1 FNP      -0.917333
     16 OP2          1.0810    -0.9800     5.0690 o          1 FNP      -0.917333
     17 OP3         -1.1260    -1.8080     4.0270 o          1 FNP      -0.917333
     18 F3           0.4790    -1.7710    -4.3600 f          1 FNP      -0.171750
     19 F4          -1.4540    -1.4640    -3.3920 f          1 FNP      -0.171750
     20 P2          -0.5710     0.6830    -4.7590 p5         1 FNP       1.293000
     21 OP4         -1.2850     0.1040    -5.9780 o          1 FNP      -0.917333
     22 OP5         -1.4350     1.5660    -3.8670 o          1 FNP      -0.917333
     23 OP6          0.8400     1.1990    -5.0250 o          1 FNP      -0.917333
     24 HC3          2.4060    -0.5470    -3.2910 ha         1 FNP       0.114500
     25 HC4          3.6010    -0.0500    -1.2210 ha         1 FNP       0.058000
     26 HC6          3.5580     0.4230     1.2300 ha         1 FNP       0.058000
     27 HC7          2.2850     0.7760     3.2860 ha         1 FNP       0.114500
     28 HC9         -1.3830     0.1390     1.1590 ha         1 FNP       0.121000
     29 H11         -1.3370    -0.3920    -1.2040 ha         1 FNP       0.121000
     30 C12         -0.2610    -0.8270    -3.6690 c3         1 FNP      -0.063700
@<TRIPOS>BOND
     1     1     8 1   
     2     1    12 1   
     3     1    13 1   
     4     1    14 1   
     5     2     3 ar  
     6     2    11 ar  
     7     2    30 1   
     8     3     4 ar  
     9     3    24 1   
    10     4     5 ar  
    11     4    25 1   
    12     5     6 ar  
    13     5    10 ar  
    14     6     7 ar  
    15     6    26 1   
    16     7     8 ar  
    17     7    27 1   
    18     8     9 ar  
    19     9    10 ar  
    20     9    28 1   
    21    10    11 ar  
    22    11    29 1   
    23    14    15 1   
    24    14    16 1   
    25    14    17 1   
    26    18    30 1   
    27    19    30 1   
    28    20    21 1   
    29    20    22 1   
    30    20    23 1   
    31    20    30 1   
@<TRIPOS>SUBSTRUCTURE
     1 FNP         1 TEMP              0 ****  ****    0 ROOT
