@<TRIPOS>MOLECULE
FNP
   30    31     1     0     0
SMALL
No Charge or Current Charge


@<TRIPOS>ATOM
      1 C1          -0.3530     0.8240     3.6890 c3         1 FNP      -0.063700
      2 C2           0.4920    -0.5570    -2.3870 ca         1 FNP      -0.089800
      3 C3           1.9000    -0.4480    -2.3760 ca         1 FNP      -0.057500
      4 C4           2.5850    -0.1220    -1.1930 ca         1 FNP      -0.169500
      5 C5           1.8720     0.1040    -0.0030 ca         1 FNP      -0.046000
      6 C6           2.5530     0.4270     1.1830 ca         1 FNP      -0.169500
      7 C7           1.8350     0.6560     2.3700 ca         1 FNP      -0.057500
      8 C8           0.4260     0.5690     2.3870 ca         1 FNP      -0.089800
      9 C9          -0.2500     0.2360     1.1920 ca         1 FNP      -0.067500
     10 C10          0.4660     0.0060     0.0000 ca         1 FNP      -0.043000
     11 C11         -0.2180    -0.3200    -1.1880 ca         1 FNP      -0.067500
     12 F1          -1.5930     1.3150     3.4220 f          1 FNP      -0.171750
     13 F2           0.2570     1.7890     4.4290 f          1 FNP      -0.171750
     14 P1          -0.5460    -0.7290     4.7760 p5         1 FNP       1.293000
     15 OP1         -1.3230    -0.3910     6.0090 o          1 FNP      -0.917333
     16 OP2          0.8000    -1.2430     5.1760 o          1 FNP      -0.917333
     17 OP3         -1.2750    -1.7930     4.0190 o          1 FNP      -0.917333
     18 F3           0.4820    -1.7900    -4.4270 f          1 FNP      -0.171750
     19 F4          -1.4100    -1.5750    -3.4100 f          1 FNP      -0.171750
     20 P2          -0.6630     0.5930    -4.7690 p5         1 FNP       1.293000
     21 OP4         -1.3920     0.1500    -5.9990 o          1 FNP      -0.917333
     22 OP5         -1.5280     1.5460    -4.0080 o          1 FNP      -0.917333
     23 OP6          0.5970     1.2880    -5.1760 o          1 FNP      -0.917333
     24 HC3          2.4680    -0.6140    -3.2890 ha         1 FNP       0.114500
     25 HC4          3.6690    -0.0450    -1.2050 ha         1 FNP       0.058000
     26 HC6          3.6370     0.5010     1.1890 ha         1 FNP       0.058000
     27 HC7          2.3800     0.8990     3.2790 ha         1 FNP       0.114500
     28 HC9         -1.3340     0.1520     1.1880 ha         1 FNP       0.121000
     29 H11         -1.3030    -0.3880    -1.1780 ha         1 FNP       0.121000
     30 C12         -0.2510    -0.9180    -3.6840 c3         1 FNP      -0.063700
@<TRIPOS>BOND
     1     1     8 1   
     2     1    12 1   
     3     1    13 1   
     4     1    14 1   
     5     2     3 ar  
     6     2    11 ar  
     7     2    30 1   
     8     3     4 ar  
     9     3    24 1   
    10     4     5 ar  
    11     4    25 1   
    12     5     6 ar  
    13     5    10 ar  
    14     6     7 ar  
    15     6    26 1   
    16     7     8 ar  
    17     7    27 1   
    18     8     9 ar  
    19     9    10 ar  
    20     9    28 1   
    21    10    11 ar  
    22    11    29 1   
    23    14    15 1   
    24    14    16 1   
    25    14    17 1   
    26    18    30 1   
    27    19    30 1   
    28    20    21 1   
    29    20    22 1   
    30    20    23 1   
    31    20    30 1   
@<TRIPOS>SUBSTRUCTURE
     1 FNP         1 TEMP              0 ****  ****    0 ROOT
