@<TRIPOS>MOLECULE
FNQ
   63    68     1     0     0
SMALL
No Charge or Current Charge


@<TRIPOS>ATOM
      1 C2           7.2060    -0.1280    -0.3660 ca         1 FNQ       0.149400
      2 C17         -5.4190    -0.4350    -0.5640 ca         1 FNQ      -0.107000
      3 C18         -6.7420    -0.6230    -0.9970 ca         1 FNQ      -0.098000
      4 C3           8.4580    -0.7750    -0.4860 ca         1 FNQ      -0.166600
      5 C4           8.8800    -1.6500     0.5340 ca         1 FNQ      -0.100000
      6 C5           8.0520    -1.8630     1.6400 ca         1 FNQ       0.338900
      7 C6           6.4190    -0.4030     0.8090 ca         1 FNQ       0.479500
      8 C7           4.0510    -0.1530     0.1890 cc         1 FNQ      -0.128000
      9 C1           7.5410     0.9470    -2.4060 cc         1 FNQ       0.501800
     10 C16         -5.1420     0.3600     0.5660 ca         1 FNQ      -0.065300
     11 C15         -1.3720     1.4730     0.4960 c6         1 FNQ       0.166300
     12 C14         -2.8230     1.2850    -0.0100 c6         1 FNQ      -0.069900
     13 C13         -3.7000     0.5720     1.0510 c6         1 FNQ      -0.020400
     14 C12         -3.0180    -0.7550     1.4660 c6         1 FNQ      -0.069900
     15 C11         -1.5640    -0.5100     1.9380 c6         1 FNQ       0.166300
     16 C8           3.0860     0.7110     0.6350 cd         1 FNQ      -0.203300
     17 C9           1.6450     0.7710     0.1970 c3         1 FNQ       0.007900
     18 C10          0.6730     0.2970     1.3050 c3         1 FNQ       0.166800
     19 C            9.3060    -0.5210    -1.6780 c          1 FNQ       0.572600
     20 N2           6.8530    -1.2620     1.7810 nb         1 FNQ      -0.676000
     21 N1           6.7260     0.7680    -1.3650 nd         1 FNQ      -0.577100
     22 N            8.7590     0.3420    -2.5610 ns         1 FNQ      -0.426400
     23 N3           5.1690     0.2400     0.9140 na         1 FNQ       0.110300
     24 N6           4.9760     1.2820     1.8010 nc         1 FNQ      -0.480800
     25 C27          3.6990     1.5520     1.6020 cd         1 FNQ       0.244900
     26 N4          -0.7500     0.1750     0.8940 n3         1 FNQ      -0.719600
     27 C21         -6.2130     0.9630     1.2520 ca         1 FNQ      -0.107000
     28 C20         -7.5360     0.7750     0.8170 ca         1 FNQ      -0.098000
     29 C19         -7.8300    -0.0220    -0.3180 cp         1 FNQ      -0.036000
     30 H1          -4.6090    -0.9100    -1.1120 ha         1 FNQ       0.114500
     31 H2          -6.9200    -1.2320    -1.8800 ha         1 FNQ       0.114000
     32 H3           9.8360    -2.1650     0.4770 ha         1 FNQ       0.151000
     33 H4           8.3560    -2.5370     2.4400 h4         1 FNQ       0.033100
     34 H5           4.0450    -0.9590    -0.5350 h4         1 FNQ       0.166000
     35 H6           7.2940     1.6020    -3.2320 h5         1 FNQ       0.055800
     36 H7          -0.7970     1.9520    -0.3080 h1         1 FNQ       0.030700
     37 H8          -1.3760     2.1690     1.3490 h1         1 FNQ       0.030700
     38 H9          -3.2560     2.2630    -0.2580 hc         1 FNQ       0.050200
     39 H10         -2.8050     0.7050    -0.9430 hc         1 FNQ       0.050200
     40 H11         -3.7270     1.2190     1.9400 hc         1 FNQ       0.047700
     41 H12         -3.5900    -1.2340     2.2720 hc         1 FNQ       0.050200
     42 H13         -3.0090    -1.4620     0.6260 hc         1 FNQ       0.050200
     43 H14         -1.5830     0.0920     2.8590 h1         1 FNQ       0.030700
     44 H15         -1.1130    -1.4790     2.1950 h1         1 FNQ       0.030700
     45 H16          1.4020     1.8000    -0.0930 hc         1 FNQ       0.052200
     46 H17          1.4970     0.1490    -0.6930 hc         1 FNQ       0.052200
     47 H18          1.0300    -0.6840     1.6470 h1         1 FNQ       0.034200
     48 H19          0.7580     0.9810     2.1610 h1         1 FNQ       0.034200
     49 H20          9.3040     0.5420    -3.3870 hn         1 FNQ       0.336500
     50 H21          3.2380     2.3530     2.1670 h4         1 FNQ       0.038100
     51 H23         -6.0250     1.5780     2.1290 ha         1 FNQ       0.114500
     52 H24         -8.3410     1.2430     1.3770 ha         1 FNQ       0.114000
     53 N5         -10.9160    -1.6730    -1.8380 nb         1 FNQ      -0.666000
     54 C23         -9.6550    -1.4340    -1.4010 ca         1 FNQ       0.344900
     55 C25        -10.2270     0.7820    -0.6230 ca         1 FNQ      -0.067000
     56 C26        -11.5340     0.5380    -1.0750 ca         1 FNQ      -0.164000
     57 C28        -11.8350    -0.6960    -1.6740 ca         1 FNQ       0.334900
     58 C29         -9.2410    -0.2230    -0.7810 cp         1 FNQ      -0.081000
     59 H25         -9.9820     1.7400    -0.1700 ha         1 FNQ       0.120000
     60 H26        -12.3080     1.2930    -0.9700 ha         1 FNQ       0.123000
     61 H27        -12.8410    -0.9080    -2.0330 h4         1 FNQ       0.019100
     62 O           10.3980    -1.0340    -1.8640 o          1 FNQ      -0.520000
     63 H22         -8.9490    -2.2510    -1.5410 h4         1 FNQ       0.020100
@<TRIPOS>BOND
     1     1     4 ar  
     2     1     7 ar  
     3     1    21 1   
     4     2     3 ar  
     5     2    10 ar  
     6     2    30 1   
     7     3    29 ar  
     8     3    31 1   
     9     4     5 ar  
    10     4    19 1   
    11     5     6 ar  
    12     5    32 1   
    13     6    20 ar  
    14     6    33 1   
    15     7    20 ar  
    16     7    23 1   
    17     8    16 2   
    18     8    23 1   
    19     8    34 1   
    20     9    21 2   
    21     9    22 1   
    22     9    35 1   
    23    10    13 1   
    24    10    27 ar  
    25    11    12 1   
    26    11    26 1   
    27    11    36 1   
    28    11    37 1   
    29    12    13 1   
    30    12    38 1   
    31    12    39 1   
    32    13    14 1   
    33    13    40 1   
    34    14    15 1   
    35    14    41 1   
    36    14    42 1   
    37    15    26 1   
    38    15    43 1   
    39    15    44 1   
    40    16    17 1   
    41    16    25 1   
    42    17    18 1   
    43    17    45 1   
    44    17    46 1   
    45    18    26 1   
    46    18    47 1   
    47    18    48 1   
    48    19    22 1   
    49    19    62 2   
    50    22    49 1   
    51    23    24 1   
    52    24    25 2   
    53    25    50 1   
    54    27    28 ar  
    55    27    51 1   
    56    28    29 ar  
    57    28    52 1   
    58    29    58 1   
    59    53    54 ar  
    60    53    57 ar  
    61    54    58 ar  
    62    54    63 1   
    63    55    56 ar  
    64    55    58 ar  
    65    55    59 1   
    66    56    57 ar  
    67    56    60 1   
    68    57    61 1   
@<TRIPOS>SUBSTRUCTURE
     1 FNQ         1 TEMP              0 ****  ****    0 ROOT
