@<TRIPOS>MOLECULE
FNQ
   63    68     1     0     0
SMALL
abcg2


@<TRIPOS>ATOM
      1 C2           7.4430     0.0390    -0.1470 ca         1 FNQ       0.149400
      2 C17         -5.5750    -0.4560    -0.5270 ca         1 FNQ      -0.107000
      3 C18         -6.9270    -0.6490    -0.7600 ca         1 FNQ      -0.098000
      4 C3           8.5760    -0.7170     0.1790 ca         1 FNQ      -0.166600
      5 C4           8.4400    -1.9740     0.7650 ca         1 FNQ      -0.100000
      6 C5           7.1670    -2.4360     1.0060 ca         1 FNQ       0.338900
      7 C6           6.1960    -0.5220     0.2170 ca         1 FNQ       0.479500
      8 C7           3.8150    -0.4080    -0.3720 cc         1 FNQ      -0.128000
      9 C1           8.6860     1.6680    -1.0920 cc         1 FNQ       0.501800
     10 C16         -5.1310     0.3540     0.5170 ca         1 FNQ      -0.065300
     11 C15         -1.4500     1.3570    -0.1040 c6         1 FNQ       0.166300
     12 C14         -2.9240     1.1550    -0.4230 c6         1 FNQ      -0.069900
     13 C13         -3.6650     0.5690     0.7780 c6         1 FNQ      -0.020400
     14 C12         -2.9520    -0.7120     1.2170 c6         1 FNQ      -0.069900
     15 C11         -1.4820    -0.4350     1.4840 c6         1 FNQ       0.166300
     16 C8           2.8800     0.5920    -0.4020 cd         1 FNQ      -0.203300
     17 C9           1.4240     0.4900    -0.7100 c3         1 FNQ       0.007900
     18 C10          0.6020     0.2830     0.5640 c3         1 FNQ       0.166800
     19 C            9.9030    -0.1780    -0.1360 c          1 FNQ       0.572600
     20 N2           6.0750    -1.7100     0.7510 nb         1 FNQ      -0.676000
     21 N1           7.5140     1.2320    -0.8150 nd         1 FNQ      -0.577100
     22 N            9.8450     1.0410    -0.7660 ns         1 FNQ      -0.426400
     23 N3           4.9940     0.1620    -0.0090 na         1 FNQ       0.110300
     24 N6           4.8720     1.4730     0.2230 nc         1 FNQ      -0.480800
     25 C27          3.6070     1.7410    -0.0110 cd         1 FNQ       0.244900
     26 N4          -0.8170     0.1170     0.3150 n3         1 FNQ      -0.719600
     27 C21         -6.0930     0.9550     1.3230 ca         1 FNQ      -0.107000
     28 C20         -7.4470     0.7620     1.0980 ca         1 FNQ      -0.098000
     29 C19         -7.8890    -0.0430     0.0490 cp         1 FNQ      -0.036000
     30 H1          -4.8590    -0.9410    -1.1810 ha         1 FNQ       0.114500
     31 H2          -7.2320    -1.2630    -1.5990 ha         1 FNQ       0.114000
     32 H3           9.3050    -2.5710     1.0130 ha         1 FNQ       0.151000
     33 H4           7.0020    -3.4160     1.4330 h4         1 FNQ       0.033100
     34 H5           3.7390    -1.4590    -0.5990 h4         1 FNQ       0.166000
     35 H6           8.8050     2.6020    -1.6270 h5         1 FNQ       0.055800
     36 H7          -0.9460     1.7350    -0.9950 h1         1 FNQ       0.030700
     37 H8          -1.3470     2.1370     0.6720 h1         1 FNQ       0.030700
     38 H9          -3.3640     2.1120    -0.7110 hc         1 FNQ       0.050200
     39 H10         -3.0140     0.4840    -1.2830 hc         1 FNQ       0.050200
     40 H11         -3.5750     1.2880     1.6020 hc         1 FNQ       0.047700
     41 H12         -3.4150    -1.1110     2.1220 hc         1 FNQ       0.050200
     42 H13         -3.0460    -1.4780     0.4410 hc         1 FNQ       0.050200
     43 H14         -1.4010     0.2450     2.3520 h1         1 FNQ       0.030700
     44 H15         -0.9780    -1.3630     1.7630 h1         1 FNQ       0.030700
     45 H16          1.1060     1.3970    -1.2280 hc         1 FNQ       0.052200
     46 H17          1.2400    -0.3440    -1.3910 hc         1 FNQ       0.052200
     47 H18          0.9670    -0.6230     1.0540 h1         1 FNQ       0.034200
     48 H19          0.7980     1.1130     1.2650 h1         1 FNQ       0.034200
     49 H20         10.7190     1.4850    -1.0160 hn         1 FNQ       0.336500
     50 H21          3.2360     2.7480     0.1090 h4         1 FNQ       0.038100
     51 H23         -5.7790     1.5810     2.1510 ha         1 FNQ       0.114500
     52 H24         -8.1620     1.2340     1.7610 ha         1 FNQ       0.114000
     53 N5         -11.1020    -1.7160    -0.8810 nb         1 FNQ      -0.666000
     54 C23         -9.8220    -1.4720    -0.6400 ca         1 FNQ       0.344900
     55 C25        -10.2610     0.7720     0.0060 ca         1 FNQ      -0.067000
     56 C26        -11.6010     0.5260    -0.2380 ca         1 FNQ      -0.164000
     57 C28        -11.9740    -0.7330    -0.6850 ca         1 FNQ       0.334900
     58 C29         -9.3280    -0.2440    -0.1960 cp         1 FNQ      -0.081000
     59 H25         -9.9410     1.7520     0.3370 ha         1 FNQ       0.120000
     60 H26        -12.3450     1.2970    -0.0960 ha         1 FNQ       0.123000
     61 H27        -13.0140    -0.9570    -0.8910 h4         1 FNQ       0.019100
     62 O           10.9550    -0.7280     0.1200 o          1 FNQ      -0.520000
     63 H22         -9.1430    -2.3050    -0.7910 h4         1 FNQ       0.020100
@<TRIPOS>BOND
     1     1     4 ar  
     2     1     7 ar  
     3     1    21 1   
     4     2     3 ar  
     5     2    10 ar  
     6     2    30 1   
     7     3    29 ar  
     8     3    31 1   
     9     4     5 ar  
    10     4    19 1   
    11     5     6 ar  
    12     5    32 1   
    13     6    20 ar  
    14     6    33 1   
    15     7    20 ar  
    16     7    23 1   
    17     8    16 2   
    18     8    23 1   
    19     8    34 1   
    20     9    21 2   
    21     9    22 1   
    22     9    35 1   
    23    10    13 1   
    24    10    27 ar  
    25    11    12 1   
    26    11    26 1   
    27    11    36 1   
    28    11    37 1   
    29    12    13 1   
    30    12    38 1   
    31    12    39 1   
    32    13    14 1   
    33    13    40 1   
    34    14    15 1   
    35    14    41 1   
    36    14    42 1   
    37    15    26 1   
    38    15    43 1   
    39    15    44 1   
    40    16    17 1   
    41    16    25 1   
    42    17    18 1   
    43    17    45 1   
    44    17    46 1   
    45    18    26 1   
    46    18    47 1   
    47    18    48 1   
    48    19    22 1   
    49    19    62 2   
    50    22    49 1   
    51    23    24 1   
    52    24    25 2   
    53    25    50 1   
    54    27    28 ar  
    55    27    51 1   
    56    28    29 ar  
    57    28    52 1   
    58    29    58 1   
    59    53    54 ar  
    60    53    57 ar  
    61    54    58 ar  
    62    54    63 1   
    63    55    56 ar  
    64    55    58 ar  
    65    55    59 1   
    66    56    57 ar  
    67    56    60 1   
    68    57    61 1   
@<TRIPOS>SUBSTRUCTURE
     1 FNQ         1 TEMP              0 ****  ****    0 ROOT
