@<TRIPOS>MOLECULE
FNT
   30    31     1     0     0
SMALL
No Charge or Current Charge


@<TRIPOS>ATOM
      1 C1         -44.3360   -20.2730     3.1080 ca         1 FNT      -0.094000
      2 Cl1        -43.3380   -22.5390     4.9930 cl         1 FNT      -0.205000
      3 C2         -42.9910   -20.1860     3.5370 ca         1 FNT      -0.045000
      4 C3         -42.1780   -19.1090     3.1070 ca         1 FNT      -0.047000
      5 C4         -42.7350   -18.1360     2.2370 ca         1 FNT      -0.065000
      6 C5         -44.0720   -18.2350     1.8180 ca         1 FNT      -0.122000
      7 C6         -44.8710   -19.2990     2.2530 ca         1 FNT      -0.104000
      8 C7         -42.4240   -21.1550     4.3930 ca         1 FNT       0.420000
      9 N8         -41.1480   -21.1110     4.8190 nb         1 FNT      -0.587000
     10 C9         -40.3380   -20.0840     4.4220 ca         1 FNT       0.197500
     11 C08        -35.7030   -20.0760     4.1550 c3         1 FNT      -0.086100
     12 C10        -40.8300   -19.0470     3.5590 ca         1 FNT       0.156100
     13 C12        -38.8880   -20.1310     4.9670 c          1 FNT       0.500600
     14 O13        -38.5120   -21.0040     5.7460 o          1 FNT      -0.605100
     15 N14        -37.9950   -19.1540     4.5600 ns         1 FNT      -0.486900
     16 C15        -36.5650   -19.0640     4.9440 c3         1 FNT      -0.038300
     17 C16        -36.0340   -17.6050     4.7740 c          1 FNT       0.708000
     18 O17        -35.4500   -17.0910     5.7190 o          1 FNT      -0.724000
     19 O18        -36.3060   -16.9990     3.7460 o          1 FNT      -0.724000
     20 O19        -40.0310   -17.9970     3.1690 oh         1 FNT      -0.530100
     21 H1         -44.9770   -21.0900     3.4280 ha         1 FNT       0.123000
     22 H4         -42.1520   -17.2970     1.8670 ha         1 FNT       0.138000
     23 H5         -44.4880   -17.4820     1.1510 ha         1 FNT       0.110000
     24 H6         -45.9060   -19.3720     1.9260 ha         1 FNT       0.108000
     25 H08B       -35.7570   -19.8770     3.0780 hc         1 FNT       0.030033
     26 HN14       -38.3610   -18.4490     3.9240 hn         1 FNT       0.339500
     27 H15        -36.4860   -19.3080     6.0110 h1         1 FNT       0.057700
     28 HO19       -40.5770   -17.3160     2.7230 ho         1 FNT       0.515000
     29 H08        -34.6540   -20.0070     4.4640 hc         1 FNT       0.030033
     30 H08A       -36.0430   -21.1030     4.3330 hc         1 FNT       0.030033
@<TRIPOS>BOND
     1     1     3 ar  
     2     1     7 ar  
     3     1    21 1   
     4     2     8 1   
     5     3     4 ar  
     6     3     8 ar  
     7     4     5 ar  
     8     4    12 ar  
     9     5     6 ar  
    10     5    22 1   
    11     6     7 ar  
    12     6    23 1   
    13     7    24 1   
    14     8     9 ar  
    15     9    10 ar  
    16    10    12 ar  
    17    10    13 1   
    18    11    16 1   
    19    11    25 1   
    20    11    29 1   
    21    11    30 1   
    22    12    20 1   
    23    13    14 2   
    24    13    15 1   
    25    15    16 1   
    26    15    26 1   
    27    16    17 1   
    28    16    27 1   
    29    17    18 1   
    30    17    19 1   
    31    20    28 1   
@<TRIPOS>SUBSTRUCTURE
     1 FNT         1 TEMP              0 ****  ****    0 ROOT
