@<TRIPOS>MOLECULE
FNT
   30    31     1     0     0
SMALL
abcg2


@<TRIPOS>ATOM
      1 C1         -44.1870   -20.4320     2.7600 ca         1 FNT      -0.094000
      2 CL1        -42.9070   -22.8600     4.2160 cl         1 FNT      -0.205000
      3 C2         -42.8980   -20.2630     3.3060 ca         1 FNT      -0.045000
      4 C3         -42.2480   -19.0050     3.1770 ca         1 FNT      -0.047000
      5 C4         -42.9080   -17.9510     2.5080 ca         1 FNT      -0.065000
      6 C5         -44.1630   -18.1450     1.9850 ca         1 FNT      -0.122000
      7 C6         -44.8060   -19.3920     2.1110 ca         1 FNT      -0.104000
      8 C7         -42.1740   -21.2700     4.0060 ca         1 FNT       0.420000
      9 N8         -41.0020   -21.1110     4.5160 nb         1 FNT      -0.587000
     10 C9         -40.3570   -19.9210     4.3800 ca         1 FNT       0.197500
     11 C08        -35.8060   -20.1530     4.8110 c3         1 FNT      -0.086100
     12 C10        -40.9440   -18.8510     3.7310 ca         1 FNT       0.156100
     13 C12        -39.0190   -19.8370     5.0610 c          1 FNT       0.500600
     14 O13        -38.8610   -20.2650     6.2050 o          1 FNT      -0.605100
     15 N14        -38.0540   -19.2300     4.3490 ns         1 FNT      -0.486900
     16 C15        -36.7190   -18.9240     4.8400 c3         1 FNT      -0.038300
     17 C16        -36.1240   -17.7850     3.9710 c          1 FNT       0.708000
     18 O17        -35.1120   -17.2140     4.4370 o          1 FNT      -0.724000
     19 O18        -36.6880   -17.5530     2.8720 o          1 FNT      -0.724000
     20 O19        -40.3800   -17.6300     3.5950 oh         1 FNT      -0.530100
     21 H1         -44.6820   -21.3870     2.8570 ha         1 FNT       0.123000
     22 H4         -42.4120   -16.9960     2.4130 ha         1 FNT       0.138000
     23 H5         -44.6640   -17.3340     1.4710 ha         1 FNT       0.110000
     24 H6         -45.7950   -19.5290     1.6940 ha         1 FNT       0.108000
     25 H08B       -35.6990   -20.5210     3.7880 hc         1 FNT       0.030033
     26 HN14       -38.1790   -19.0290     3.3640 hn         1 FNT       0.339500
     27 H15        -36.8100   -18.5650     5.8660 h1         1 FNT       0.057700
     28 HO19       -39.5070   -17.6030     4.0200 ho         1 FNT       0.515000
     29 H08        -34.8200   -19.8930     5.1940 hc         1 FNT       0.030033
     30 H08A       -36.2210   -20.9520     5.4250 hc         1 FNT       0.030033
@<TRIPOS>BOND
     1     1     3 ar  
     2     1     7 ar  
     3     1    21 1   
     4     2     8 1   
     5     3     4 ar  
     6     3     8 ar  
     7     4     5 ar  
     8     4    12 ar  
     9     5     6 ar  
    10     5    22 1   
    11     6     7 ar  
    12     6    23 1   
    13     7    24 1   
    14     8     9 ar  
    15     9    10 ar  
    16    10    12 ar  
    17    10    13 1   
    18    11    16 1   
    19    11    25 1   
    20    11    29 1   
    21    11    30 1   
    22    12    20 1   
    23    13    14 2   
    24    13    15 1   
    25    15    16 1   
    26    15    26 1   
    27    16    17 1   
    28    16    27 1   
    29    17    18 1   
    30    17    19 1   
    31    20    28 1   
@<TRIPOS>SUBSTRUCTURE
     1 FNT         1 TEMP              0 ****  ****    0 ROOT
