@<TRIPOS>MOLECULE
FNV
   72    77     1     0     0
SMALL
bcc


@<TRIPOS>ATOM
      1 C4          -6.0910     0.2310    -1.5940 ca         1 FNV       0.501600
      2 C5          -5.3330    -0.5090    -0.6940 ca         1 FNV      -0.385400
      3 C6          -4.1510    -1.0890    -1.2290 ca         1 FNV       0.763200
      4 N1          -3.8580    -0.9030    -2.5170 nb         1 FNV      -0.810000
      5 N3          -5.8000     0.4200    -2.8810 nb         1 FNV      -0.716000
      6 C2          -4.6860    -0.1750    -3.2570 ca         1 FNV       0.704900
      7 CAI          3.9500    -2.2970    -1.3160 ca         1 FNV      -0.092000
      8 CAJ          4.9810    -1.4180    -1.0720 ca         1 FNV      -0.145000
      9 CAK         -5.9040    -0.5410     0.6120 cc         1 FNV      -0.064200
     10 CAL          4.7520    -0.8630     2.4840 cc         1 FNV      -0.106200
     11 CAM         -1.7130    -3.5920    -0.0630 c6         1 FNV      -0.092900
     12 CAN         -0.9400    -1.3800    -0.9180 c6         1 FNV      -0.092900
     13 CAO         -0.3740    -4.1680    -0.4940 c6         1 FNV       0.173300
     14 CAP          0.3710    -2.0430    -1.3090 c6         1 FNV       0.173300
     15 CAQ          4.9940     3.1210    -1.3880 c6         1 FNV       0.044400
     16 CAR          7.7940     2.6880    -1.0140 c6         1 FNV       0.084000
     17 CAS          1.9790    -3.7260    -0.6820 c3         1 FNV       0.226100
     18 CBB          5.9870     4.1990    -1.7800 c          1 FNV       0.678500
     19 CBC          3.2560    -2.3720     1.0080 ca         1 FNV       0.015700
     20 CBD         -7.0610     0.1590     0.6910 cd         1 FNV      -0.112600
     21 CBE          5.8280    -0.0850     2.1470 cd         1 FNV       0.006200
     22 CBF          3.0880    -2.7770    -0.3070 ca         1 FNV      -0.124300
     23 CBH          4.3040    -1.4700     1.2810 ca         1 FNV      -0.122800
     24 CBK          5.1510    -1.0060     0.2500 ca         1 FNV      -0.005200
     25 CBL         -2.0790    -2.3960    -0.9300 c6         1 FNV       0.236500
     26 CBM          6.6800     1.9550    -0.2920 c6         1 FNV       0.102100
     27 CBP         -7.6420     1.6590     2.5930 c3         1 FNV       0.663900
     28 FAD         -6.3710     1.7520     3.0030 f          1 FNV      -0.235300
     29 FAE         -7.8690     2.7120     1.7930 f          1 FNV      -0.235300
     30 FAF         -8.4170     1.8140     3.6740 f          1 FNV      -0.235300
     31 NAB          7.2590     1.3650     3.7050 n1         1 FNV      -0.356800
     32 NAX          7.2790     3.9270    -1.5590 ns         1 FNV      -0.574900
     33 NAY         -3.3330    -1.8270    -0.4740 nu         1 FNV      -0.858900
     34 NBN          0.6660    -3.1630    -0.4390 n3         1 FNV      -0.731600
     35 NBO          6.0820    -0.1730     0.7960 na         1 FNV      -0.038400
     36 OAZ          5.5640     1.8620    -1.1430 os         1 FNV      -0.385600
     37 SBA         -7.4960     0.8890    -0.8290 ss         1 FNV      -0.076900
     38 H1          -4.4050    -0.0560    -4.2980 h5         1 FNV       0.047100
     39 H2           1.4650    -2.2250     2.1780 hc         1 FNV       0.046367
     40 H3           2.0340    -3.8640     1.9750 hc         1 FNV       0.046367
     41 H4           2.8720    -2.7850     3.0840 hc         1 FNV       0.046367
     42 H5           3.7870    -2.6340    -2.3330 ha         1 FNV       0.128000
     43 H6           5.6120    -1.0650    -1.8750 ha         1 FNV       0.142000
     44 H7          -5.4870    -1.0680     1.4600 ha         1 FNV       0.149000
     45 H8           4.3520    -0.9750     3.4790 ha         1 FNV       0.165000
     46 H9          -2.4850    -4.3620    -0.1310 hc         1 FNV       0.055200
     47 H10         -1.6460    -3.2820     0.9850 hc         1 FNV       0.055200
     48 H11         -0.8490    -0.9530     0.0850 hc         1 FNV       0.055200
     49 H12         -1.1580    -0.5630    -1.6080 hc         1 FNV       0.055200
     50 H13         -0.1020    -4.9910     0.1720 h1         1 FNV       0.036700
     51 H14         -0.4730    -4.6010    -1.5070 h1         1 FNV       0.036700
     52 H15          0.3220    -2.3580    -2.3690 h1         1 FNV       0.036700
     53 H16          1.1790    -1.3130    -1.2380 h1         1 FNV       0.036700
     54 H17          4.4450     3.4900    -0.5100 h1         1 FNV       0.082200
     55 H18          4.2730     3.0070    -2.1980 h1         1 FNV       0.082200
     56 H19          8.6050     2.9140    -0.3210 h1         1 FNV       0.051700
     57 H20          8.2050     2.0600    -1.8110 h1         1 FNV       0.051700
     58 H21          2.1070    -4.0390    -1.7330 h1         1 FNV       0.035200
     59 H22          2.0640    -4.6390    -0.0840 h1         1 FNV       0.035200
     60 H23         -8.9800     0.3090     1.6420 hc         1 FNV       0.087700
     61 H24         -7.7300    -0.4600     2.6050 hc         1 FNV       0.087700
     62 H25          7.3810    -0.0200    -0.8050 h1         1 FNV       0.073700
     63 H26          8.0070     0.5970     0.7060 h1         1 FNV       0.073700
     64 H27         -2.2280    -2.7440    -1.9560 h1         1 FNV       0.081700
     65 H28          6.4150     2.5120     0.6200 h1         1 FNV       0.062700
     66 H29          7.9490     4.6310    -1.8320 hn         1 FNV       0.323500
     67 H30         -3.5270    -1.8850     0.5130 hn         1 FNV       0.439800
     68 CAT         -7.9180     0.3490     1.8970 c3         1 FNV      -0.076200
     69 CAA          2.3660    -2.8370     2.1210 c3         1 FNV      -0.042800
     70 CAG          6.6190     0.7130     3.0010 ch         1 FNV       0.212500
     71 CAU          7.1100     0.5490     0.0860 c3         1 FNV       0.054300
     72 OAC          5.5880     5.2620    -2.2370 o          1 FNV      -0.630500
@<TRIPOS>BOND
     1     1     2 ar  
     2     1     5 ar  
     3     1    37 1   
     4     2     3 ar  
     5     2     9 1   
     6     3     4 ar  
     7     3    33 1   
     8     4     6 ar  
     9     5     6 ar  
    10     6    38 1   
    11     7     8 ar  
    12     7    22 ar  
    13     7    42 1   
    14     8    24 ar  
    15     8    43 1   
    16     9    20 2   
    17     9    44 1   
    18    10    21 2   
    19    10    23 1   
    20    10    45 1   
    21    11    13 1   
    22    11    25 1   
    23    11    46 1   
    24    11    47 1   
    25    12    14 1   
    26    12    25 1   
    27    12    48 1   
    28    12    49 1   
    29    13    34 1   
    30    13    50 1   
    31    13    51 1   
    32    14    34 1   
    33    14    52 1   
    34    14    53 1   
    35    15    18 1   
    36    15    36 1   
    37    15    54 1   
    38    15    55 1   
    39    16    26 1   
    40    16    32 1   
    41    16    56 1   
    42    16    57 1   
    43    17    22 1   
    44    17    34 1   
    45    17    58 1   
    46    17    59 1   
    47    18    32 1   
    48    18    72 2   
    49    19    22 ar  
    50    19    23 ar  
    51    19    69 1   
    52    20    37 1   
    53    20    68 1   
    54    21    35 1   
    55    21    70 1   
    56    23    24 ar  
    57    24    35 1   
    58    25    33 1   
    59    25    64 1   
    60    26    36 1   
    61    26    65 1   
    62    26    71 1   
    63    27    28 1   
    64    27    29 1   
    65    27    30 1   
    66    27    68 1   
    67    31    70 3   
    68    32    66 1   
    69    33    67 1   
    70    35    71 1   
    71    39    69 1   
    72    40    69 1   
    73    41    69 1   
    74    60    68 1   
    75    61    68 1   
    76    62    71 1   
    77    63    71 1   
@<TRIPOS>SUBSTRUCTURE
     1 FNV         1 TEMP              0 ****  ****    0 ROOT
