@<TRIPOS>MOLECULE
FNV
   72    77     1     0     0
SMALL
No Charge or Current Charge


@<TRIPOS>ATOM
      1 C4          -6.0280     0.4630    -1.6570 ca         1 FNV       0.173300
      2 C5          -5.3290    -0.4320    -0.8710 ca         1 FNV      -0.254800
      3 C6          -4.2380    -1.1010    -1.4470 ca         1 FNV       0.434900
      4 N1          -3.8930    -0.8720    -2.7300 nb         1 FNV      -0.284000
      5 N3          -5.7070     0.7130    -2.9390 nb         1 FNV      -0.190000
      6 C2          -4.6440     0.0240    -3.4120 ca         1 FNV       0.178900
      7 CAI          3.8600    -2.2470    -1.2230 ca         1 FNV      -0.074000
      8 CAJ          4.8770    -1.3190    -0.9270 ca         1 FNV      -0.127000
      9 CAK         -5.8550    -0.5350     0.4760 cc         1 FNV      -0.114200
     10 CAL          4.7840    -0.9420     2.6500 cc         1 FNV      -0.156200
     11 CAM         -1.8480    -3.8020    -0.2670 c6         1 FNV      -0.092900
     12 CAN         -1.0680    -1.4810    -0.8830 c6         1 FNV      -0.092900
     13 CAO         -0.4350    -4.3320    -0.6010 c6         1 FNV       0.173300
     14 CAP          0.3270    -2.0650    -1.1970 c6         1 FNV       0.173300
     15 CAQ          4.9080     3.3040    -1.4850 c6         1 FNV       0.067600
     16 CAR          7.7390     2.8910    -0.9510 c6         1 FNV       0.084000
     17 CAS          1.9730    -3.8130    -0.5800 c3         1 FNV       0.226100
     18 CBB          5.9640     4.1180    -2.2650 c          1 FNV       0.536000
     19 CBC          3.3070    -2.4580     1.1620 ca         1 FNV       0.015700
     20 CBD         -6.9430     0.3050     0.6580 cd         1 FNV      -0.112600
     21 CBE          5.8130    -0.0620     2.3420 cd         1 FNV       0.006200
     22 CBF          3.0720    -2.8200    -0.1940 ca         1 FNV      -0.124300
     23 CBH          4.3300    -1.5230     1.4140 ca         1 FNV      -0.122800
     24 CBK          5.0920    -0.9750     0.4150 ca         1 FNV      -0.005200
     25 CBL         -2.1650    -2.5460    -1.1050 c6         1 FNV       0.236500
     26 CBM          6.5870     2.0990    -0.2560 c6         1 FNV       0.125300
     27 CBP         -7.2530     1.6060     2.8390 c3         1 FNV       0.300000
     28 FAD         -5.9710     1.3980     3.2200 f          1 FNV      -0.114000
     29 FAE         -7.3140     2.8020     2.2110 f          1 FNV      -0.114000
     30 FAF         -8.0100     1.6850     3.9560 f          1 FNV      -0.114000
     31 NAB          7.1830     1.4260     3.9620 n1         1 FNV      -0.446000
     32 NAX          7.2640     3.9900    -1.8240 ns         1 FNV      -0.507900
     33 NAY         -3.4850    -2.0150    -0.7170 nu         1 FNV      -0.914100
     34 NBN          0.6010    -3.2860    -0.3880 n3         1 FNV      -0.731600
     35 NBO          6.0210    -0.0820     0.9430 na         1 FNV      -0.067700
     36 OAZ          5.4290     2.0010    -1.1200 os         1 FNV      -0.432000
     37 SBA         -7.3770     1.2380    -0.8070 ss         1 FNV      -0.076900
     38 H1          -4.3650     0.2080    -4.4480 h5         1 FNV       0.047100
     39 H2           1.4660    -2.6140     2.3070 hc         1 FNV       0.046367
     40 H3           2.3790    -4.1290     2.2140 hc         1 FNV       0.046367
     41 H4           2.9190    -2.8460     3.2850 hc         1 FNV       0.046367
     42 H5           3.6780    -2.5170    -2.2610 ha         1 FNV       0.110000
     43 H6           5.4650    -0.8790    -1.7270 ha         1 FNV       0.124000
     44 H7          -5.4640    -1.1740     1.2640 ha         1 FNV       0.199000
     45 H8           4.4050    -1.1280     3.6520 ha         1 FNV       0.215000
     46 H9          -2.5910    -4.5860    -0.4640 hc         1 FNV       0.055200
     47 H10         -1.9030    -3.5710     0.8060 hc         1 FNV       0.055200
     48 H11         -1.0890    -1.1270     0.1570 hc         1 FNV       0.055200
     49 H12         -1.2510    -0.6060    -1.5200 hc         1 FNV       0.055200
     50 H13         -0.2290    -5.2060     0.0330 h1         1 FNV       0.036700
     51 H14         -0.4180    -4.6780    -1.6460 h1         1 FNV       0.036700
     52 H15          0.3870    -2.2980    -2.2710 h1         1 FNV       0.036700
     53 H16          1.0770    -1.2870    -0.9930 h1         1 FNV       0.036700
     54 H17          4.6340     3.8690    -0.5830 h1         1 FNV       0.082200
     55 H18          4.0230     3.1850    -2.1240 h1         1 FNV       0.082200
     56 H19          8.4140     3.3070    -0.1890 h1         1 FNV       0.051700
     57 H20          8.3290     2.2040    -1.5740 h1         1 FNV       0.051700
     58 H21          2.1100    -4.1100    -1.6290 h1         1 FNV       0.035200
     59 H22          2.1090    -4.7250     0.0170 h1         1 FNV       0.035200
     60 H23         -8.8020     0.6570     1.6710 hc         1 FNV       0.087700
     61 H24         -7.7420    -0.4690     2.4940 hc         1 FNV       0.087700
     62 H25          7.2630     0.0940    -0.7580 h1         1 FNV       0.073700
     63 H26          7.9420     0.7330     0.7370 h1         1 FNV       0.073700
     64 H27         -2.1660    -2.8430    -2.1660 h1         1 FNV       0.081700
     65 H28          6.2930     2.6380     0.6560 h1         1 FNV       0.062700
     66 H29          7.9550     4.5330    -2.3280 hn         1 FNV       0.323500
     67 H30         -3.7870    -2.1480     0.2450 hn         1 FNV       0.495000
     68 CAT         -7.7520     0.4670     1.9230 c3         1 FNV      -0.076200
     69 CAA          2.4750    -3.0410     2.3030 c3         1 FNV      -0.042800
     70 CAG          6.5590     0.7470     3.2450 ch         1 FNV       0.301700
     71 CAU          7.0200     0.6630     0.1470 c3         1 FNV       0.083600
     72 OAC          5.7020     4.7780    -3.2600 o          1 FNV      -0.555000
@<TRIPOS>BOND
     1     1     2 ar  
     2     1     5 ar  
     3     1    37 1   
     4     2     3 ar  
     5     2     9 1   
     6     3     4 ar  
     7     3    33 1   
     8     4     6 ar  
     9     5     6 ar  
    10     6    38 1   
    11     7     8 ar  
    12     7    22 ar  
    13     7    42 1   
    14     8    24 ar  
    15     8    43 1   
    16     9    20 2   
    17     9    44 1   
    18    10    21 2   
    19    10    23 1   
    20    10    45 1   
    21    11    13 1   
    22    11    25 1   
    23    11    46 1   
    24    11    47 1   
    25    12    14 1   
    26    12    25 1   
    27    12    48 1   
    28    12    49 1   
    29    13    34 1   
    30    13    50 1   
    31    13    51 1   
    32    14    34 1   
    33    14    52 1   
    34    14    53 1   
    35    15    18 1   
    36    15    36 1   
    37    15    54 1   
    38    15    55 1   
    39    16    26 1   
    40    16    32 1   
    41    16    56 1   
    42    16    57 1   
    43    17    22 1   
    44    17    34 1   
    45    17    58 1   
    46    17    59 1   
    47    18    32 1   
    48    18    72 2   
    49    19    22 ar  
    50    19    23 ar  
    51    19    69 1   
    52    20    37 1   
    53    20    68 1   
    54    21    35 1   
    55    21    70 1   
    56    23    24 ar  
    57    24    35 1   
    58    25    33 1   
    59    25    64 1   
    60    26    36 1   
    61    26    65 1   
    62    26    71 1   
    63    27    28 1   
    64    27    29 1   
    65    27    30 1   
    66    27    68 1   
    67    31    70 3   
    68    32    66 1   
    69    33    67 1   
    70    35    71 1   
    71    39    69 1   
    72    40    69 1   
    73    41    69 1   
    74    60    68 1   
    75    61    68 1   
    76    62    71 1   
    77    63    71 1   
@<TRIPOS>SUBSTRUCTURE
     1 FNV         1 TEMP              0 ****  ****    0 ROOT
