@<TRIPOS>MOLECULE
FNW
   25    26     1     0     0
SMALL
No Charge or Current Charge


@<TRIPOS>ATOM
      1 C01         27.1330    -4.9280    -5.5830 ca         1 FNW      -0.005200
      2 C05         23.8120    -4.1770    -6.0790 cc         1 FNW       0.199300
      3 C06         22.3120    -4.2560    -5.8910 c3         1 FNW       0.150300
      4 C08         24.7680    -4.9460    -5.4830 cd         1 FNW      -0.166000
      5 C09         27.7810    -4.2520    -4.5410 ca         1 FNW      -0.041000
      6 C10         29.0080    -4.7230    -4.0640 ca         1 FNW      -0.111000
      7 C11         29.6060    -5.8680    -4.6140 ca         1 FNW       0.177000
      8 C13         28.9710    -6.5780    -5.6780 ca         1 FNW      -0.185300
      9 C14         29.5620    -7.8480    -6.3420 c3         1 FNW       0.374300
     10 C18         27.7210    -6.0810    -6.1510 ca         1 FNW       0.163000
     11 F15         30.7430    -8.2690    -5.8450 f          1 FNW      -0.100667
     12 F16         29.7730    -7.6590    -7.6640 f          1 FNW      -0.100667
     13 F17         28.7240    -8.9020    -6.2200 f          1 FNW      -0.100667
     14 N02         25.9110    -4.4430    -6.0440 na         1 FNW       0.196000
     15 N03         25.6880    -3.3960    -6.8870 nd         1 FNW      -0.178800
     16 N04         24.3830    -3.2530    -6.9250 nc         1 FNW      -0.330000
     17 O07         21.9370    -4.2010    -4.5030 oh         1 FNW      -0.647000
     18 Cl12        31.1550    -6.3190    -3.8900 cl         1 FNW      -0.143000
     19 Cl19        26.8510    -6.8870    -7.4740 cl         1 FNW      -0.132000
     20 H1          21.8390    -3.4320    -6.4410 h1         1 FNW       0.031700
     21 H2          21.9580    -5.1940    -6.3400 h1         1 FNW       0.031700
     22 H3          24.7220    -5.7520    -4.7640 h4         1 FNW       0.175000
     23 H4          27.3330    -3.3620    -4.1010 ha         1 FNW       0.151000
     24 H5          29.5050    -4.1940    -3.2550 ha         1 FNW       0.148000
     25 H6          20.9550    -4.2500    -4.4680 ho         1 FNW       0.445000
@<TRIPOS>BOND
     1     1     5 ar  
     2     1    10 ar  
     3     1    14 1   
     4     2     3 1   
     5     2     4 2   
     6     2    16 1   
     7     3    17 1   
     8     3    20 1   
     9     3    21 1   
    10     4    14 1   
    11     4    22 1   
    12     5     6 ar  
    13     5    23 1   
    14     6     7 ar  
    15     6    24 1   
    16     7     8 ar  
    17     7    18 1   
    18     8     9 1   
    19     8    10 ar  
    20     9    11 1   
    21     9    12 1   
    22     9    13 1   
    23    10    19 1   
    24    14    15 1   
    25    15    16 2   
    26    17    25 1   
@<TRIPOS>SUBSTRUCTURE
     1 FNW         1 TEMP              0 ****  ****    0 ROOT
