@<TRIPOS>MOLECULE
FNW
   25    26     1     0     0
SMALL
abcg2


@<TRIPOS>ATOM
      1 C01         27.1530    -5.0090    -5.3810 ca         1 FNW      -0.005200
      2 C05         23.7470    -4.2870    -5.9590 cc         1 FNW       0.199300
      3 C06         22.2630    -4.3800    -5.9620 c3         1 FNW       0.150300
      4 C08         24.6720    -5.1670    -5.4670 cd         1 FNW      -0.166000
      5 C09         27.8720    -4.3240    -4.4180 ca         1 FNW      -0.041000
      6 C10         29.1480    -4.7300    -4.0970 ca         1 FNW      -0.111000
      7 C11         29.7120    -5.8330    -4.7250 ca         1 FNW       0.177000
      8 C13         29.0070    -6.5500    -5.6960 ca         1 FNW      -0.185300
      9 C14         29.5430    -7.7590    -6.4340 c3         1 FNW       0.374300
     10 C18         27.7180    -6.1030    -6.0230 ca         1 FNW       0.163000
     11 F15         30.7430    -8.1540    -6.0330 f          1 FNW      -0.100667
     12 F16         29.6370    -7.5080    -7.7430 f          1 FNW      -0.100667
     13 F17         28.7330    -8.8100    -6.2790 f          1 FNW      -0.100667
     14 N02         25.8550    -4.5680    -5.7090 na         1 FNW       0.196000
     15 N03         25.6780    -3.3910    -6.3090 nd         1 FNW      -0.178800
     16 N04         24.4190    -3.2210    -6.4610 nc         1 FNW      -0.330000
     17 O07         21.7530    -3.4630    -5.0200 oh         1 FNW      -0.647000
     18 CL12        31.3150    -6.2220    -4.2240 cl         1 FNW      -0.143000
     19 CL19        26.7910    -6.8710    -7.2510 cl         1 FNW      -0.132000
     20 H1          21.8950    -4.1660    -6.9720 h1         1 FNW       0.031700
     21 H2          21.9770    -5.4120    -5.7320 h1         1 FNW       0.031700
     22 H3          24.5850    -6.1220    -4.9780 h4         1 FNW       0.175000
     23 H4          27.4280    -3.4730    -3.9200 ha         1 FNW       0.151000
     24 H5          29.7120    -4.1930    -3.3490 ha         1 FNW       0.148000
     25 H6          20.7950    -3.4550    -5.1060 ho         1 FNW       0.445000
@<TRIPOS>BOND
     1     1     5 ar  
     2     1    10 ar  
     3     1    14 1   
     4     2     3 1   
     5     2     4 2   
     6     2    16 1   
     7     3    17 1   
     8     3    20 1   
     9     3    21 1   
    10     4    14 1   
    11     4    22 1   
    12     5     6 ar  
    13     5    23 1   
    14     6     7 ar  
    15     6    24 1   
    16     7     8 ar  
    17     7    18 1   
    18     8     9 1   
    19     8    10 ar  
    20     9    11 1   
    21     9    12 1   
    22     9    13 1   
    23    10    19 1   
    24    14    15 1   
    25    15    16 2   
    26    17    25 1   
@<TRIPOS>SUBSTRUCTURE
     1 FNW         1 TEMP              0 ****  ****    0 ROOT
