@<TRIPOS>MOLECULE
FNX
   39    41     1     0     0
SMALL
abcg2


@<TRIPOS>ATOM
      1 O3           0.4660    -1.9710     1.8390 o          1 FNX      -0.578100
      2 CP1          1.2830    -1.6550     0.9970 c          1 FNX       0.608900
      3 N5           1.2410    -0.4790     0.3320 n          1 FNX      -0.410800
      4 C6           0.2850     0.5270     0.7860 c6         1 FNX       0.032400
      5 C7           0.7590     1.9150     0.3320 c6         1 FNX       0.208800
      6 N8           2.1860     2.0370     0.5190 nu         1 FNX      -0.862400
      7 C8A          2.9900     1.1120     0.0260 c2         1 FNX       0.705200
      8 C4A          2.2580    -0.0350    -0.6120 c6         1 FNX      -0.130600
      9 C4           3.2040    -1.1290    -1.1230 c          1 FNX       0.732500
     10 O4           2.7090    -2.1020    -1.6720 o          1 FNX      -0.545100
     11 N3           4.5210    -0.9480    -0.9950 ne         1 FNX      -0.830100
     12 C2           4.9820     0.1470    -0.3980 cf         1 FNX       0.957200
     13 NA2          6.2960     0.2620    -0.2830 nv         1 FNX      -1.002200
     14 N1           4.2810     1.1930     0.1210 nf         1 FNX      -0.861000
     15 C9          -1.0910     0.2600     0.2520 c2         1 FNX       0.429200
     16 N10         -2.1070     0.4600     0.9730 ne         1 FNX      -0.551100
     17 C14         -3.3880     0.3010     0.4260 ca         1 FNX       0.113400
     18 C13         -4.3700    -0.2920     1.2180 ca         1 FNX      -0.103000
     19 C12         -5.6500    -0.4780     0.7260 ca         1 FNX      -0.105000
     20 C15         -3.7310     0.7430    -0.8500 ca         1 FNX      -0.103000
     21 C16         -5.0230     0.5690    -1.3260 ca         1 FNX      -0.105000
     22 C11         -6.0020    -0.0540    -0.5560 ca         1 FNX      -0.072300
     23 C           -7.3900    -0.2700    -1.0840 c3         1 FNX      -0.047800
     24 H1           2.1110    -2.3140     0.7170 h5         1 FNX       0.049200
     25 H2           0.2520     0.5120     1.8770 h1         1 FNX       0.102700
     26 H3           0.4970     2.0950    -0.7150 h1         1 FNX       0.069700
     27 H4           0.2590     2.6750     0.9260 h1         1 FNX       0.069700
     28 H5           2.5740     2.8370     0.9990 hn         1 FNX       0.520000
     29 H6           1.7600     0.3440    -1.5140 h1         1 FNX       0.097700
     30 H7           6.9030    -0.4640    -0.6260 hn         1 FNX       0.513000
     31 H8           6.7030     1.0640     0.1650 hn         1 FNX       0.513000
     32 H9          -1.1490    -0.0810    -0.7880 h4         1 FNX      -0.013200
     33 H10         -4.1180    -0.6150     2.2210 ha         1 FNX       0.120000
     34 H11         -6.3950    -0.9530     1.3540 ha         1 FNX       0.114000
     35 H12         -3.0000     1.2570    -1.4630 ha         1 FNX       0.120000
     36 H13         -5.2730     0.9330    -2.3160 ha         1 FNX       0.114000
     37 H14         -7.5240    -1.3000    -1.4210 hc         1 FNX       0.043700
     38 H15         -8.1420    -0.0830    -0.3180 hc         1 FNX       0.043700
     39 H16         -7.6030     0.3800    -1.9320 hc         1 FNX       0.043700
@<TRIPOS>BOND
     1     1     2 2   
     2     2     3 1   
     3     2    24 1   
     4     3     4 1   
     5     3     8 1   
     6     4     5 1   
     7     4    15 1   
     8     4    25 1   
     9     5     6 1   
    10     5    26 1   
    11     5    27 1   
    12     6     7 1   
    13     6    28 1   
    14     7     8 1   
    15     7    14 2   
    16     8     9 1   
    17     8    29 1   
    18     9    10 2   
    19     9    11 1   
    20    11    12 2   
    21    12    13 1   
    22    12    14 1   
    23    13    30 1   
    24    13    31 1   
    25    15    16 2   
    26    15    32 1   
    27    16    17 1   
    28    17    18 ar  
    29    17    20 ar  
    30    18    19 ar  
    31    18    33 1   
    32    19    22 ar  
    33    19    34 1   
    34    20    21 ar  
    35    20    35 1   
    36    21    22 ar  
    37    21    36 1   
    38    22    23 1   
    39    23    37 1   
    40    23    38 1   
    41    23    39 1   
@<TRIPOS>SUBSTRUCTURE
     1 FNX         1 TEMP              0 ****  ****    0 ROOT
