@<TRIPOS>MOLECULE
FNX
   39    41     1     0     0
SMALL
No Charge or Current Charge


@<TRIPOS>ATOM
      1 O3           0.2670    -2.4600     0.6870 o          1 FNX      -0.578100
      2 CP1          1.2020    -2.0000     0.0410 c          1 FNX       0.608900
      3 N5           1.3540    -0.6090    -0.1800 n          1 FNX      -0.410800
      4 C6           0.3900     0.3930     0.4240 c6         1 FNX       0.032400
      5 C7           0.7450     1.8830     0.1160 c6         1 FNX       0.208800
      6 N8           2.1980     2.1060     0.2610 nu         1 FNX      -0.862400
      7 C8A          3.1140     1.1990    -0.1640 c2         1 FNX       0.705200
      8 C4A          2.5530    -0.0050    -0.8980 c6         1 FNX      -0.130600
      9 C4           3.7130    -0.9290    -1.2630 c          1 FNX       0.732500
     10 O4           3.5850    -1.7690    -2.1380 o          1 FNX      -0.545100
     11 N3           4.8890    -0.7790    -0.5860 ne         1 FNX      -0.830100
     12 C2           5.1810     0.3380    -0.0990 cf         1 FNX       0.957200
     13 NA2          6.2630     0.3990     0.5820 nv         1 FNX      -1.002200
     14 N1           4.3280     1.3240     0.2430 nf         1 FNX      -0.861000
     15 C9          -1.0650     0.1450     0.0410 c2         1 FNX       0.429200
     16 N10         -2.0750     0.5790     0.7450 ne         1 FNX      -0.551100
     17 C14         -3.4220     0.3820     0.3770 ca         1 FNX       0.113400
     18 C13         -4.3830     0.2150     1.3890 ca         1 FNX      -0.103000
     19 C12         -5.7380     0.0250     1.0650 ca         1 FNX      -0.105000
     20 C15         -3.8370     0.3730    -0.9720 ca         1 FNX      -0.103000
     21 C16         -5.1920     0.1830    -1.2960 ca         1 FNX      -0.105000
     22 C11         -6.1490     0.0070    -0.2800 ca         1 FNX      -0.072300
     23 C           -7.6140    -0.2010    -0.6330 c3         1 FNX      -0.047800
     24 H1           1.9930    -2.6250    -0.4090 h5         1 FNX       0.049200
     25 H2           0.4540     0.2750     1.5150 h1         1 FNX       0.102700
     26 H3           0.4410     2.1110    -0.9180 h1         1 FNX       0.069700
     27 H4           0.1720     2.5520     0.7750 h1         1 FNX       0.069700
     28 H5           2.5510     2.7540     0.9610 hn         1 FNX       0.520000
     29 H6           2.2020     0.3650    -1.8700 h1         1 FNX       0.097700
     30 H7           6.6360    -0.5080     0.8060 hn         1 FNX       0.513000
     31 H8           6.2030     1.0460     1.3500 hn         1 FNX       0.513000
     32 H9          -1.2480    -0.4240    -0.8670 h4         1 FNX      -0.013200
     33 H10         -4.0760     0.2290     2.4320 ha         1 FNX       0.120000
     34 H11         -6.4670    -0.1090     1.8620 ha         1 FNX       0.114000
     35 H12         -3.1190     0.5240    -1.7740 ha         1 FNX       0.120000
     36 H13         -5.4980     0.1770    -2.3410 ha         1 FNX       0.114000
     37 H14         -7.8370    -1.2670    -0.7610 hc         1 FNX       0.043700
     38 H15         -8.2740     0.1870     0.1530 hc         1 FNX       0.043700
     39 H16         -7.8780     0.3110    -1.5660 hc         1 FNX       0.043700
@<TRIPOS>BOND
     1     1     2 2   
     2     2     3 1   
     3     2    24 1   
     4     3     4 1   
     5     3     8 1   
     6     4     5 1   
     7     4    15 1   
     8     4    25 1   
     9     5     6 1   
    10     5    26 1   
    11     5    27 1   
    12     6     7 1   
    13     6    28 1   
    14     7     8 1   
    15     7    14 2   
    16     8     9 1   
    17     8    29 1   
    18     9    10 2   
    19     9    11 1   
    20    11    12 2   
    21    12    13 1   
    22    12    14 1   
    23    13    30 1   
    24    13    31 1   
    25    15    16 2   
    26    15    32 1   
    27    16    17 1   
    28    17    18 ar  
    29    17    20 ar  
    30    18    19 ar  
    31    18    33 1   
    32    19    22 ar  
    33    19    34 1   
    34    20    21 ar  
    35    20    35 1   
    36    21    22 ar  
    37    21    36 1   
    38    22    23 1   
    39    23    37 1   
    40    23    38 1   
    41    23    39 1   
@<TRIPOS>SUBSTRUCTURE
     1 FNX         1 TEMP              0 ****  ****    0 ROOT
