@<TRIPOS>MOLECULE
FNZ
   39    41     1     0     0
SMALL
No Charge or Current Charge


@<TRIPOS>ATOM
      1 C1          -0.8590    -0.6870    -0.7620 c3         1 FNZ       0.103600
      2 C2           0.4820     0.0050    -0.3550 c3         1 FNZ       0.166300
      3 C3           1.7390    -0.7240    -0.8980 c3         1 FNZ      -0.067100
      4 C4           3.0430    -0.0410    -0.4960 ca         1 FNZ      -0.097300
      5 C5           3.4850    -0.0930     0.8420 ca         1 FNZ      -0.075000
      6 C6           4.6840     0.5390     1.2160 ca         1 FNZ      -0.147000
      7 C7           5.4440     1.2210     0.2550 ca         1 FNZ       0.176000
      8 C8           5.0140     1.2760    -1.0790 ca         1 FNZ      -0.147000
      9 C9           3.8150     0.6450    -1.4560 ca         1 FNZ      -0.075000
     10 C10         -2.1160     0.1000    -0.3640 ca         1 FNZ      -0.071300
     11 C11         -3.1930     0.1810    -1.2700 ca         1 FNZ      -0.091500
     12 C12         -4.3650     0.8800    -0.9300 ca         1 FNZ      -0.069000
     13 C13         -4.4770     1.5040     0.3260 ca         1 FNZ      -0.005000
     14 C14         -3.4090     1.4210     1.2390 ca         1 FNZ      -0.069000
     15 C15         -2.2380     0.7220     0.8980 ca         1 FNZ      -0.091500
     16 C16         -5.6740     2.2190     0.6750 cg         1 FNZ       0.320000
     17 C17         -1.0110    -4.1590    -0.2970 cc         1 FNZ       0.520900
     18 C18         -1.0950    -2.5220     1.0250 cd         1 FNZ       0.405400
     19 O2           0.5030     1.3570    -0.8420 oh         1 FNZ      -0.630000
     20 F7           6.5970     1.8270     0.6150 f          1 FNZ      -0.177000
     21 N1          -6.6490     2.7930     0.9650 n1         1 FNZ      -0.444000
     22 N2          -0.9460    -2.0830    -0.2850 na         1 FNZ      -0.062700
     23 N3          -0.8950    -3.1510    -1.1430 nd         1 FNZ      -0.533800
     24 N4          -1.1330    -3.8420     1.0250 nc         1 FNZ      -0.694000
     25 H1          -0.8480    -0.7330    -1.8590 h1         1 FNZ       0.086700
     26 H2           0.5490     0.0050     0.7420 h1         1 FNZ       0.083700
     27 H3C1         1.7500    -1.7560    -0.5240 hc         1 FNZ       0.060700
     28 H3C2         1.6660    -0.8020    -1.9900 hc         1 FNZ       0.060700
     29 H5           2.9010    -0.6240     1.5920 ha         1 FNZ       0.112500
     30 H6           5.0250     0.4990     2.2480 ha         1 FNZ       0.134500
     31 H8           5.6090     1.8060    -1.8190 ha         1 FNZ       0.134500
     32 H9           3.4880     0.6910    -2.4920 ha         1 FNZ       0.112500
     33 H11         -3.1250    -0.3010    -2.2430 ha         1 FNZ       0.118000
     34 H12         -5.1840     0.9330    -1.6440 ha         1 FNZ       0.130000
     35 H14         -3.4850     1.8970     2.2150 ha         1 FNZ       0.130000
     36 H15         -1.4300     0.6690     1.6240 ha         1 FNZ       0.118000
     37 H18         -1.1600    -1.8530     1.8750 h5         1 FNZ       0.063100
     38 HA           1.4150     1.6920    -0.7010 ho         1 FNZ       0.443000
     39 H17         -1.0130    -5.2020    -0.5940 h5         1 FNZ       0.067100
@<TRIPOS>BOND
     1     1     2 1   
     2     1    10 1   
     3     1    22 1   
     4     1    25 1   
     5     2     3 1   
     6     2    19 1   
     7     2    26 1   
     8     3     4 1   
     9     3    27 1   
    10     3    28 1   
    11     4     5 ar  
    12     4     9 ar  
    13     5     6 ar  
    14     5    29 1   
    15     6     7 ar  
    16     6    30 1   
    17     7     8 ar  
    18     7    20 1   
    19     8     9 ar  
    20     8    31 1   
    21     9    32 1   
    22    10    11 ar  
    23    10    15 ar  
    24    11    12 ar  
    25    11    33 1   
    26    12    13 ar  
    27    12    34 1   
    28    13    14 ar  
    29    13    16 1   
    30    14    15 ar  
    31    14    35 1   
    32    15    36 1   
    33    16    21 3   
    34    17    23 2   
    35    17    24 1   
    36    17    39 1   
    37    18    22 1   
    38    18    24 2   
    39    18    37 1   
    40    19    38 1   
    41    22    23 1   
@<TRIPOS>SUBSTRUCTURE
     1 FNZ         1 TEMP              0 ****  ****    0 ROOT
