@<TRIPOS>MOLECULE
FNZ
   39    41     1     0     0
SMALL
bcc


@<TRIPOS>ATOM
      1 C1          -0.8170    -0.8040    -0.7360 c3         1 FNZ       0.074300
      2 C2           0.4760    -0.0310    -0.3930 c3         1 FNZ       0.143100
      3 C3           1.7290    -0.7610    -0.8850 c3         1 FNZ      -0.067100
      4 C4           2.9820    -0.0370    -0.4810 ca         1 FNZ      -0.097300
      5 C5           3.5260    -0.2230     0.7870 ca         1 FNZ      -0.093000
      6 C6           4.6600     0.4640     1.1950 ca         1 FNZ      -0.165000
      7 C7           5.2500     1.3450     0.3090 ca         1 FNZ       0.140900
      8 C8           4.7440     1.5560    -0.9590 ca         1 FNZ      -0.165000
      9 C9           3.6050     0.8610    -1.3430 ca         1 FNZ      -0.093000
     10 C10         -2.0490     0.0010    -0.3930 ca         1 FNZ      -0.071300
     11 C11         -2.7790     0.6050    -1.4100 ca         1 FNZ      -0.109500
     12 C12         -3.8990     1.3650    -1.1220 ca         1 FNZ      -0.087000
     13 C13         -4.2950     1.5240     0.2040 ca         1 FNZ      -0.005000
     14 C14         -3.5700     0.9240     1.2330 ca         1 FNZ      -0.087000
     15 C15         -2.4530     0.1680     0.9280 ca         1 FNZ      -0.109500
     16 C16         -5.4520     2.3010     0.5120 cg         1 FNZ       0.230800
     17 C17         -1.4120    -4.0880     0.1730 cc         1 FNZ       0.520900
     18 C18         -0.3910    -2.5180     1.0830 cd         1 FNZ       0.405400
     19 O2           0.3910     1.2640    -0.9190 oh         1 FNZ      -0.567800
     20 F7           6.3530     2.0120     0.6900 f          1 FNZ      -0.141900
     21 N1          -6.3880     2.9250     0.7620 n1         1 FNZ      -0.354800
     22 N2          -0.8550    -2.1100    -0.1050 na         1 FNZ      -0.033400
     23 N3          -1.5180    -3.1110    -0.6940 nd         1 FNZ      -0.533800
     24 N4          -0.7210    -3.7720     1.2890 nc         1 FNZ      -0.694000
     25 H1          -0.8160    -1.0000    -1.8110 h1         1 FNZ       0.086700
     26 H2           0.5370     0.1030     0.6920 h1         1 FNZ       0.083700
     27 H3C1         1.7510    -1.7800    -0.4950 hc         1 FNZ       0.060700
     28 H3C2         1.6790    -0.8540    -1.9740 hc         1 FNZ       0.060700
     29 H5           3.0630    -0.9200     1.4760 ha         1 FNZ       0.130500
     30 H6           5.0770     0.3130     2.1820 ha         1 FNZ       0.152500
     31 H8           5.2270     2.2490    -1.6350 ha         1 FNZ       0.152500
     32 H9           3.2090     1.0170    -2.3380 ha         1 FNZ       0.130500
     33 H11         -2.4780     0.4780    -2.4420 ha         1 FNZ       0.136000
     34 H12         -4.4640     1.8270    -1.9200 ha         1 FNZ       0.148000
     35 H14         -3.8790     1.0480     2.2620 ha         1 FNZ       0.148000
     36 H15         -1.9050    -0.2910     1.7410 ha         1 FNZ       0.136000
     37 H18          0.1780    -1.8970     1.7570 h5         1 FNZ       0.063100
     38 HA           0.4530     1.2180    -1.8800 ho         1 FNZ       0.404000
     39 H17         -1.8420    -5.0610    -0.0070 h5         1 FNZ       0.067100
@<TRIPOS>BOND
     1     1     2 1   
     2     1    10 1   
     3     1    22 1   
     4     1    25 1   
     5     2     3 1   
     6     2    19 1   
     7     2    26 1   
     8     3     4 1   
     9     3    27 1   
    10     3    28 1   
    11     4     5 ar  
    12     4     9 ar  
    13     5     6 ar  
    14     5    29 1   
    15     6     7 ar  
    16     6    30 1   
    17     7     8 ar  
    18     7    20 1   
    19     8     9 ar  
    20     8    31 1   
    21     9    32 1   
    22    10    11 ar  
    23    10    15 ar  
    24    11    12 ar  
    25    11    33 1   
    26    12    13 ar  
    27    12    34 1   
    28    13    14 ar  
    29    13    16 1   
    30    14    15 ar  
    31    14    35 1   
    32    15    36 1   
    33    16    21 3   
    34    17    23 2   
    35    17    24 1   
    36    17    39 1   
    37    18    22 1   
    38    18    24 2   
    39    18    37 1   
    40    19    38 1   
    41    22    23 1   
@<TRIPOS>SUBSTRUCTURE
     1 FNZ         1 TEMP              0 ****  ****    0 ROOT
