@<TRIPOS>MOLECULE
FO0
   46    49     1     0     0
SMALL
bcc


@<TRIPOS>ATOM
      1 C10        149.8170    91.1300   181.3330 ca         1 FO0       0.779200
      2 C13        149.1750    92.8470   179.5530 c          1 FO0       0.703700
      3 C15        149.0000    95.3040   177.6700 ca         1 FO0      -0.208600
      4 C17        150.5410    96.6450   176.4200 ca         1 FO0      -0.246300
      5 C20        146.6320    94.5430   177.4730 c3         1 FO0      -0.108100
      6 C01        146.5090    92.1880   187.6210 cc         1 FO0      -0.202000
      7 C02        147.2380    90.9930   187.8430 cc         1 FO0      -0.067000
      8 C03        148.0130    90.4520   186.8650 cd         1 FO0      -0.104300
      9 C04        148.0940    91.1040   185.5880 cd         1 FO0       0.171700
     10 C05        146.5890    92.7950   186.4220 cd         1 FO0      -0.032300
     11 C06        148.9170    91.1760   183.4520 ca         1 FO0       0.764300
     12 C07        148.2030    92.3570   183.1750 ca         1 FO0      -0.432900
     13 C08        147.3880    92.9720   184.1740 c          1 FO0       0.630900
     14 C09        148.7920    89.1930   187.0650 c3         1 FO0      -0.032800
     15 C11        149.0750    92.3000   180.9320 ca         1 FO0      -0.378900
     16 C12        148.3020    92.9000   181.8890 ca         1 FO0       0.053000
     17 C14        148.0640    94.1240   177.7860 c3         1 FO0       0.171000
     18 C16        149.7400    95.5180   176.5160 ca         1 FO0      -0.075000
     19 C18        150.5750    97.5230   177.4930 ca         1 FO0       0.403200
     20 C19        149.1110    96.2500   178.6840 ca         1 FO0       0.416200
     21 N01        147.3650    92.2690   185.4150 n          1 FO0      -0.116200
     22 N02        148.8430    90.5760   184.6560 nc         1 FO0      -0.445000
     23 N03        149.7050    90.6010   182.5440 nb         1 FO0      -0.786000
     24 N04        148.1020    93.5240   179.1060 ns         1 FO0      -0.569900
     25 N05        149.8760    97.3320   178.6060 nb         1 FO0      -0.667000
     26 N06        150.6290    90.5030   180.4790 nv         1 FO0      -0.945500
     27 O01        146.7430    93.9940   184.0460 o          1 FO0      -0.607500
     28 O02        150.1750    92.6890   178.8590 o          1 FO0      -0.628100
     29 H2         145.9590    93.6860   177.5200 hc         1 FO0       0.047700
     30 H3         146.2800    95.3010   178.1740 hc         1 FO0       0.047700
     31 H4         146.5770    94.9620   176.4700 hc         1 FO0       0.047700
     32 H5         145.8930    92.6170   188.3960 ha         1 FO0       0.155000
     33 H6         147.1750    90.5040   188.8070 ha         1 FO0       0.145000
     34 H7         146.0650    93.7050   186.1800 h4         1 FO0       0.186000
     35 H8         148.6380    88.8080   188.0710 hc         1 FO0       0.054033
     36 H9         148.4910    88.4240   186.3530 hc         1 FO0       0.054033
     37 H10        149.8590    89.3590   186.9190 hc         1 FO0       0.054033
     38 H11        147.7630    93.8150   181.6720 ha         1 FO0       0.148000
     39 H12        148.3710    93.3750   177.0500 h1         1 FO0       0.066700
     40 H13        149.6930    94.8070   175.6980 ha         1 FO0       0.136000
     41 H14        151.1920    98.4140   177.4530 h4         1 FO0       0.018100
     42 H15        148.5570    96.1220   179.6090 h4         1 FO0       0.017100
     43 H17        147.2460    93.5060   179.6350 hn         1 FO0       0.322500
     44 H18        151.1800    89.7330   180.8180 hn         1 FO0       0.460300
     45 H19        150.8890    90.9450   179.6120 hn         1 FO0       0.460300
     46 H1         151.1320    96.8400   175.5360 ha         1 FO0       0.141000
@<TRIPOS>BOND
     1     1    15 ar  
     2     1    23 ar  
     3     1    26 1   
     4     2    15 1   
     5     2    24 1   
     6     2    28 2   
     7     3    17 1   
     8     3    18 ar  
     9     3    20 ar  
    10     4    18 ar  
    11     4    19 ar  
    12     4    46 1   
    13     5    17 1   
    14     5    29 1   
    15     5    30 1   
    16     5    31 1   
    17     6     7 1   
    18     6    10 2   
    19     6    32 1   
    20     7     8 2   
    21     7    33 1   
    22     8     9 1   
    23     8    14 1   
    24     9    21 1   
    25     9    22 2   
    26    10    21 1   
    27    10    34 1   
    28    11    12 ar  
    29    11    22 1   
    30    11    23 ar  
    31    12    13 1   
    32    12    16 ar  
    33    13    21 1   
    34    13    27 2   
    35    14    35 1   
    36    14    36 1   
    37    14    37 1   
    38    15    16 ar  
    39    16    38 1   
    40    17    24 1   
    41    17    39 1   
    42    18    40 1   
    43    19    25 ar  
    44    19    41 1   
    45    20    25 ar  
    46    20    42 1   
    47    24    43 1   
    48    26    44 1   
    49    26    45 1   
@<TRIPOS>SUBSTRUCTURE
     1 FO0         1 TEMP              0 ****  ****    0 ROOT
