@<TRIPOS>MOLECULE
FO0
   46    49     1     0     0
SMALL
No Charge or Current Charge


@<TRIPOS>ATOM
      1 C10        149.5590    90.8750   181.1690 ca         1 FO0       0.450900
      2 C13        149.0340    92.5710   179.3420 c          1 FO0       0.636700
      3 C15        148.9340    95.4830   177.6860 ca         1 FO0      -0.143300
      4 C17        150.9270    96.7000   177.0660 ca         1 FO0      -0.163000
      5 C20        146.6310    94.4510   177.2640 c3         1 FO0      -0.108100
      6 C01        146.7680    92.3420   187.7200 cc         1 FO0      -0.184000
      7 C02        147.4680    91.1290   187.9390 cc         1 FO0      -0.049000
      8 C03        148.1480    90.5120   186.9110 cd         1 FO0      -0.104300
      9 C04        148.1260    91.1450   185.5940 cd         1 FO0       0.121000
     10 C05        146.7700    92.9040   186.4720 cd         1 FO0      -0.065000
     11 C06        148.8240    91.0420   183.3690 ca         1 FO0       0.436000
     12 C07        148.1600    92.2390   183.0500 ca         1 FO0      -0.367600
     13 C08        147.4110    92.9560   184.1050 c          1 FO0       0.555400
     14 C09        148.8910    89.2130   187.1690 c3         1 FO0      -0.032800
     15 C11        148.9310    92.0570   180.7570 ca         1 FO0      -0.313600
     16 C12        148.2100    92.7570   181.7420 ca         1 FO0       0.071000
     17 C14        148.0940    94.2110   177.6840 c3         1 FO0       0.171000
     18 C16        150.1810    95.5110   177.0340 ca         1 FO0      -0.057000
     19 C18        150.4110    97.8160   177.7450 ca         1 FO0       0.337900
     20 C19        148.5000    96.6510   178.3500 ca         1 FO0       0.350900
     21 N01        147.4320    92.3520   185.3650 n          1 FO0      -0.014800
     22 N02        148.8110    90.4800   184.6560 nc         1 FO0      -0.445000
     23 N03        149.5090    90.3910   182.4110 nb         1 FO0      -0.260000
     24 N04        148.1480    93.5640   178.9920 ns         1 FO0      -0.502900
     25 N05        149.2170    97.7990   178.3820 nb         1 FO0      -0.667000
     26 N06        150.2690    90.0970   180.3190 nv         1 FO0      -1.055900
     27 O01        146.8190    94.0040   183.8710 o          1 FO0      -0.532000
     28 O02        149.8700    92.1630   178.5470 o          1 FO0      -0.628100
     29 H2         146.0960    93.4970   177.1860 hc         1 FO0       0.047700
     30 H3         146.1010    95.0790   177.9890 hc         1 FO0       0.047700
     31 H4         146.5910    94.9430   176.2850 hc         1 FO0       0.047700
     32 H5         146.2390    92.8090   188.5460 ha         1 FO0       0.137000
     33 H6         147.4540    90.6990   188.9360 ha         1 FO0       0.127000
     34 H7         146.2520    93.8310   186.2480 h4         1 FO0       0.168000
     35 H8         148.7980    88.8880   188.2120 hc         1 FO0       0.054033
     36 H9         148.5020    88.4040   186.5400 hc         1 FO0       0.054033
     37 H10        149.9610    89.3210   186.9560 hc         1 FO0       0.054033
     38 H11        147.7090    93.6970   181.5160 ha         1 FO0       0.130000
     39 H12        148.5210    93.5220   176.9410 h1         1 FO0       0.066700
     40 H13        150.5650    94.6330   176.5170 ha         1 FO0       0.118000
     41 H14        150.9700    98.7500   177.7840 h4         1 FO0       0.018100
     42 H15        147.5500    96.6710   178.8810 h4         1 FO0       0.017100
     43 H17        147.4620    93.8300   179.6840 hn         1 FO0       0.322500
     44 H18        150.9450    89.4480   180.7130 hn         1 FO0       0.515500
     45 H19        150.5090    90.5230   179.4210 hn         1 FO0       0.515500
     46 H1         151.8930    96.7630   176.5730 ha         1 FO0       0.123000
@<TRIPOS>BOND
     1     1    15 ar  
     2     1    23 ar  
     3     1    26 1   
     4     2    15 1   
     5     2    24 1   
     6     2    28 2   
     7     3    17 1   
     8     3    18 ar  
     9     3    20 ar  
    10     4    18 ar  
    11     4    19 ar  
    12     4    46 1   
    13     5    17 1   
    14     5    29 1   
    15     5    30 1   
    16     5    31 1   
    17     6     7 1   
    18     6    10 2   
    19     6    32 1   
    20     7     8 2   
    21     7    33 1   
    22     8     9 1   
    23     8    14 1   
    24     9    21 1   
    25     9    22 2   
    26    10    21 1   
    27    10    34 1   
    28    11    12 ar  
    29    11    22 1   
    30    11    23 ar  
    31    12    13 1   
    32    12    16 ar  
    33    13    21 1   
    34    13    27 2   
    35    14    35 1   
    36    14    36 1   
    37    14    37 1   
    38    15    16 ar  
    39    16    38 1   
    40    17    24 1   
    41    17    39 1   
    42    18    40 1   
    43    19    25 ar  
    44    19    41 1   
    45    20    25 ar  
    46    20    42 1   
    47    24    43 1   
    48    26    44 1   
    49    26    45 1   
@<TRIPOS>SUBSTRUCTURE
     1 FO0         1 TEMP              0 ****  ****    0 ROOT
