@<TRIPOS>MOLECULE
FO1
   43    45     1     0     0
SMALL
bcc


@<TRIPOS>ATOM
      1 N1           0.9860    -2.0220     0.3310 nc         1 FO1      -0.491400
      2 C1           1.7240    -3.1170     0.0340 c          1 FO1       0.876900
      3 O1           1.3020    -4.2530     0.1650 o          1 FO1      -0.605500
      4 N2           3.0220    -2.9390    -0.4480 ns         1 FO1      -0.625500
      5 C2           3.6500    -1.7460    -0.6450 c          1 FO1       0.740100
      6 O2           4.7910    -1.6700    -1.0640 o          1 FO1      -0.619500
      7 C3           2.8240    -0.5880    -0.3050 cd         1 FO1      -0.287600
      8 C4           3.2980     0.6820    -0.4260 cc         1 FO1       0.069000
      9 C5           2.4820     1.7780    -0.1070 ca         1 FO1      -0.189000
     10 C6           2.9530     3.0990    -0.2310 ca         1 FO1      -0.013000
     11 C7           2.1570     4.1670     0.0630 ca         1 FO1      -0.254000
     12 C9           0.8330     3.9320     0.4780 ca         1 FO1       0.207100
     13 O10         -0.0010     4.9350     0.7560 oh         1 FO1      -0.481100
     14 C11          0.3370     2.6450     0.6060 ca         1 FO1      -0.221000
     15 C12          1.1560     1.5480     0.3340 ca         1 FO1       0.155700
     16 N3           0.7210     0.2470     0.4960 na         1 FO1      -0.087100
     17 C13          1.5000    -0.8290     0.1720 cd         1 FO1       0.221700
     18 C14         -0.6060    -0.0350     1.0480 c3         1 FO1       0.043300
     19 C15         -1.6390    -0.3000    -0.0430 c3         1 FO1       0.108100
     20 O3          -1.5560     0.7470    -0.9750 oh         1 FO1      -0.606800
     21 C16         -3.0410    -0.4240     0.5830 c3         1 FO1       0.078100
     22 O4          -3.0220    -1.3020     1.6870 oh         1 FO1      -0.589800
     23 C17         -4.1030    -0.8740    -0.4380 c3         1 FO1       0.106100
     24 O5          -4.1020    -0.0500    -1.5930 oh         1 FO1      -0.587800
     25 C18         -5.4840    -0.9390     0.1920 c3         1 FO1       0.108400
     26 O6          -6.3940    -1.4250    -0.7660 oh         1 FO1      -0.586800
     27 HN3          3.5430    -3.7800    -0.6610 hn         1 FO1       0.336500
     28 HC6          3.9710     3.2560    -0.5650 ha         1 FO1       0.143000
     29 HC82         0.4320     5.7890     0.6350 ho         1 FO1       0.438000
     30 HC9         -0.6980     2.5330     0.8870 ha         1 FO1       0.168000
     31 HC11        -0.5120    -0.9050     1.6900 h1         1 FO1       0.084200
     32 HC12        -0.9010     0.7970     1.6830 h1         1 FO1       0.084200
     33 HC2         -1.3870    -1.2640    -0.5120 h1         1 FO1       0.067700
     34 HO2         -2.2940     0.6300    -1.5910 ho         1 FO1       0.434000
     35 HC3         -3.3240     0.5580     0.9830 h1         1 FO1       0.075700
     36 HO3         -2.7840    -2.1840     1.3800 ho         1 FO1       0.419000
     37 HC4         -3.8270    -1.8750    -0.7940 h1         1 FO1       0.090700
     38 HO4         -4.5740     0.7670    -1.3910 ho         1 FO1       0.409000
     39 HC51        -5.4450    -1.5810     1.0780 h1         1 FO1       0.032200
     40 HC52        -5.7620     0.0680     0.5400 h1         1 FO1       0.032200
     41 HO5         -7.2610    -1.4730    -0.3530 ho         1 FO1       0.409000
     42 H21          4.3100     0.8540    -0.7730 ha         1 FO1       0.164000
     43 HC7          2.5310     5.1790    -0.0340 ha         1 FO1       0.144000
@<TRIPOS>BOND
     1     1     2 1   
     2     1    17 2   
     3     2     3 2   
     4     2     4 1   
     5     4     5 1   
     6     4    27 1   
     7     5     6 2   
     8     5     7 1   
     9     7     8 2   
    10     7    17 1   
    11     8     9 1   
    12     8    42 1   
    13     9    10 ar  
    14     9    15 ar  
    15    10    11 ar  
    16    10    28 1   
    17    11    12 ar  
    18    11    43 1   
    19    12    13 1   
    20    12    14 ar  
    21    13    29 1   
    22    14    15 ar  
    23    14    30 1   
    24    15    16 1   
    25    16    17 1   
    26    16    18 1   
    27    18    19 1   
    28    18    31 1   
    29    18    32 1   
    30    19    20 1   
    31    19    21 1   
    32    19    33 1   
    33    20    34 1   
    34    21    22 1   
    35    21    23 1   
    36    21    35 1   
    37    22    36 1   
    38    23    24 1   
    39    23    25 1   
    40    23    37 1   
    41    24    38 1   
    42    25    26 1   
    43    25    39 1   
    44    25    40 1   
    45    26    41 1   
@<TRIPOS>SUBSTRUCTURE
     1 FO1         1 TEMP              0 ****  ****    0 ROOT
