@<TRIPOS>MOLECULE
FO1
   43    45     1     0     0
SMALL
No Charge or Current Charge


@<TRIPOS>ATOM
      1 N1           1.0830    -1.9650     0.1610 nc         1 FO1      -0.491400
      2 C1           1.8190    -3.0990    -0.1120 c          1 FO1       0.734400
      3 O1           1.3250    -4.2120    -0.0800 o          1 FO1      -0.530000
      4 N2           3.1300    -2.9350    -0.4180 ns         1 FO1      -0.491500
      5 C2           3.8240    -1.7740    -0.4920 c          1 FO1       0.597600
      6 O2           5.0100    -1.7460    -0.7740 o          1 FO1      -0.544000
      7 C3           2.9890    -0.5990    -0.2020 cd         1 FO1      -0.287600
      8 C4           3.5370     0.6620    -0.2240 cc         1 FO1       0.087000
      9 C5           2.6450     1.7870    -0.0030 ca         1 FO1      -0.189000
     10 C6           3.1820     3.0840    -0.1310 ca         1 FO1       0.005000
     11 C7           2.3640     4.2100     0.0190 ca         1 FO1      -0.236000
     12 C9           1.0050     4.0420     0.2850 ca         1 FO1       0.207100
     13 O10          0.1960     5.1280     0.4150 oh         1 FO1      -0.520100
     14 C11          0.4650     2.7580     0.4160 ca         1 FO1      -0.203000
     15 C12          1.2730     1.5970     0.2950 ca         1 FO1       0.105000
     16 N3           0.7160     0.3000     0.4610 na         1 FO1      -0.015000
     17 C13          1.6020    -0.7470     0.1220 cd         1 FO1       0.171000
     18 C14         -0.6410     0.0840     1.0410 c3         1 FO1       0.072600
     19 C15         -1.7470    -0.2260    -0.0090 c3         1 FO1       0.131300
     20 O3          -1.9120     0.8880    -0.9000 oh         1 FO1      -0.729000
     21 C16         -3.1290    -0.5640     0.6470 c3         1 FO1       0.101300
     22 O4          -2.9910    -1.6940     1.5370 oh         1 FO1      -0.712000
     23 C17         -4.2680    -0.8410    -0.3940 c3         1 FO1       0.129300
     24 O5          -4.4510     0.2840    -1.2730 oh         1 FO1      -0.710000
     25 C18         -5.6460    -1.1180     0.2650 c3         1 FO1       0.131600
     26 O6          -6.6700    -1.1120    -0.7500 oh         1 FO1      -0.709000
     27 HN3          3.6450    -3.7780    -0.6100 hn         1 FO1       0.336500
     28 HC6          4.2380     3.2200    -0.3580 ha         1 FO1       0.125000
     29 HC82         0.7420     5.9320     0.2900 ho         1 FO1       0.477000
     30 HC9         -0.6010     2.6910     0.6000 ha         1 FO1       0.150000
     31 HC11        -0.5710    -0.7620     1.7340 h1         1 FO1       0.084200
     32 HC12        -0.9380     0.9350     1.6630 h1         1 FO1       0.084200
     33 HC2         -1.4290    -1.1060    -0.5860 h1         1 FO1       0.067700
     34 HO2         -2.8680     0.8210    -1.1990 ho         1 FO1       0.533000
     35 HC3         -3.4340     0.3140     1.2340 h1         1 FO1       0.075700
     36 HO3         -2.6910    -2.4720     1.0100 ho         1 FO1       0.518000
     37 HC4         -3.9940    -1.7300    -0.9810 h1         1 FO1       0.090700
     38 HO4         -5.4040     0.1980    -1.5380 ho         1 FO1       0.508000
     39 HC51        -5.6160    -2.0900     0.7760 h1         1 FO1       0.032200
     40 HC52        -5.8520    -0.3470     1.0200 h1         1 FO1       0.032200
     41 HO5         -7.5120    -1.3900    -0.3160 ho         1 FO1       0.508000
     42 H21          4.5900     0.8060    -0.4500 ha         1 FO1       0.146000
     43 HC7          2.7930     5.2040    -0.0850 ha         1 FO1       0.126000
@<TRIPOS>BOND
     1     1     2 1   
     2     1    17 2   
     3     2     3 2   
     4     2     4 1   
     5     4     5 1   
     6     4    27 1   
     7     5     6 2   
     8     5     7 1   
     9     7     8 2   
    10     7    17 1   
    11     8     9 1   
    12     8    42 1   
    13     9    10 ar  
    14     9    15 ar  
    15    10    11 ar  
    16    10    28 1   
    17    11    12 ar  
    18    11    43 1   
    19    12    13 1   
    20    12    14 ar  
    21    13    29 1   
    22    14    15 ar  
    23    14    30 1   
    24    15    16 1   
    25    16    17 1   
    26    16    18 1   
    27    18    19 1   
    28    18    31 1   
    29    18    32 1   
    30    19    20 1   
    31    19    21 1   
    32    19    33 1   
    33    20    34 1   
    34    21    22 1   
    35    21    23 1   
    36    21    35 1   
    37    22    36 1   
    38    23    24 1   
    39    23    25 1   
    40    23    37 1   
    41    24    38 1   
    42    25    26 1   
    43    25    39 1   
    44    25    40 1   
    45    26    41 1   
@<TRIPOS>SUBSTRUCTURE
     1 FO1         1 TEMP              0 ****  ****    0 ROOT
