@<TRIPOS>MOLECULE
FO2
   41    44     1     0     0
SMALL
bcc


@<TRIPOS>ATOM
      1 C1          -2.9840     2.5640     0.4320 ca         1 FO2       0.402200
      2 N1          -4.9460    -1.6510    -0.4500 ns         1 FO2      -0.494400
      3 C2          -1.6780     0.7000     0.2490 ca         1 FO2       0.543800
      4 N2          -2.6190    -1.4610    -0.3040 nc         1 FO2      -0.578100
      5 C3          -2.7900    -0.1380     0.0020 ca         1 FO2       0.085100
      6 N3          -0.3750     0.1820     0.2780 na         1 FO2       0.059600
      7 C4          -4.0460     0.4780     0.0450 ca         1 FO2      -0.168600
      8 N4          -0.0750    -0.9230     0.9660 nc         1 FO2      -0.483800
      9 C5          -5.2440    -0.3370    -0.1790 c          1 FO2       0.716100
     10 C6          -3.6830    -2.1420    -0.5170 cd         1 FO2       0.501800
     11 C7           1.2290    -1.0480     0.8560 cd         1 FO2       0.314200
     12 C8           1.8010    -0.0080     0.0830 cd         1 FO2      -0.258600
     13 C9           0.7270     0.7690    -0.2580 cc         1 FO2      -0.100300
     14 C10          3.2380     0.2210    -0.2510 c6         1 FO2       0.022600
     15 C11          4.0320     0.7120     0.9620 c6         1 FO2      -0.070400
     16 O           -6.3840     0.0770    -0.1400 o          1 FO2      -0.594500
     17 C           -4.1480     1.8500     0.2700 ca         1 FO2      -0.182300
     18 N           -1.7790     1.9900     0.4360 nb         1 FO2      -0.671000
     19 C14          3.9220    -1.0210    -0.8220 c6         1 FO2      -0.070400
     20 C13          5.3880    -0.7410    -1.1150 c6         1 FO2       0.165300
     21 N5           6.0900    -0.2830     0.0690 n3         1 FO2      -0.714600
     22 C15          7.4980    -0.0980    -0.1970 c3         1 FO2       0.152100
     23 C12          5.4930     0.9270     0.6010 c6         1 FO2       0.165300
     24 H1          -3.0070     3.6360     0.5800 h4         1 FO2       0.033100
     25 H2          -5.7170    -2.2820    -0.6270 hn         1 FO2       0.336500
     26 H3          -3.6130    -3.1920    -0.7730 h5         1 FO2       0.055800
     27 H4           1.7310    -1.8750     1.3350 h4         1 FO2       0.040100
     28 H5           0.6610     1.6720    -0.8430 h4         1 FO2       0.180000
     29 H6           3.2840     1.0070    -1.0160 hc         1 FO2       0.044700
     30 H7           3.6080     1.6470     1.3360 hc         1 FO2       0.050200
     31 H8           3.9580    -0.0210     1.7720 hc         1 FO2       0.050200
     32 H9          -5.1100     2.3410     0.3040 ha         1 FO2       0.169000
     33 H10          3.8490    -1.8490    -0.1090 hc         1 FO2       0.050200
     34 H11          3.4210    -1.3410    -1.7390 hc         1 FO2       0.050200
     35 H12          5.8720    -1.6520    -1.4760 h1         1 FO2       0.028950
     36 H13          5.4570    -0.0010    -1.9350 h1         1 FO2       0.028950
     37 H15          8.0170     0.2020     0.7150 h1         1 FO2       0.029033
     38 H16          7.9430    -1.0330    -0.5410 h1         1 FO2       0.029033
     39 H17          7.6970     0.6700    -0.9620 h1         1 FO2       0.029033
     40 H18          5.5660     1.7620    -0.1210 h1         1 FO2       0.028950
     41 H19          6.0520     1.2320     1.4890 h1         1 FO2       0.028950
@<TRIPOS>BOND
     1     1    17 ar  
     2     1    18 ar  
     3     1    24 1   
     4     2     9 1   
     5     2    10 1   
     6     2    25 1   
     7     3     5 ar  
     8     3     6 1   
     9     3    18 ar  
    10     4     5 1   
    11     4    10 2   
    12     5     7 ar  
    13     6     8 1   
    14     6    13 1   
    15     7     9 1   
    16     7    17 ar  
    17     8    11 2   
    18     9    16 2   
    19    10    26 1   
    20    11    12 1   
    21    11    27 1   
    22    12    13 2   
    23    12    14 1   
    24    13    28 1   
    25    14    15 1   
    26    14    19 1   
    27    14    29 1   
    28    15    23 1   
    29    15    30 1   
    30    15    31 1   
    31    17    32 1   
    32    19    20 1   
    33    19    33 1   
    34    19    34 1   
    35    20    21 1   
    36    20    35 1   
    37    20    36 1   
    38    21    22 1   
    39    21    23 1   
    40    22    37 1   
    41    22    38 1   
    42    22    39 1   
    43    23    40 1   
    44    23    41 1   
@<TRIPOS>SUBSTRUCTURE
     1 FO2         1 TEMP              0 ****  ****    0 ROOT
