@<TRIPOS>MOLECULE
FO2
   41    44     1     0     0
SMALL
No Charge or Current Charge


@<TRIPOS>ATOM
      1 C1          -3.5010     2.2700     1.4130 ca         1 FO2       0.336900
      2 N1          -4.2310    -1.4330    -1.5430 ns         1 FO2      -0.427400
      3 C2          -1.7180     0.8500     0.8720 ca         1 FO2       0.478500
      4 N2          -2.0240    -1.0880    -0.6580 nc         1 FO2      -0.578100
      5 C3          -2.5600     0.0400     0.0280 ca         1 FO2       0.150400
      6 N3          -0.3620     0.4800     0.9740 na         1 FO2       0.110300
      7 C4          -3.9210     0.4130    -0.0840 ca         1 FO2      -0.168600
      8 N4           0.1290    -0.1190     2.1220 nc         1 FO2      -0.483800
      9 C5          -4.8330    -0.3880    -0.9390 c          1 FO2       0.573600
     10 C6          -2.9110    -1.7520    -1.4030 cd         1 FO2       0.501800
     11 C7           1.4050    -0.2600     1.8120 cd         1 FO2       0.248900
     12 C8           1.7210     0.2400     0.5210 cd         1 FO2      -0.193300
     13 C9           0.5690     0.7310    -0.0280 cc         1 FO2      -0.133000
     14 C10          3.0880     0.2320    -0.1320 c6         1 FO2       0.022600
     15 C11          4.1070     1.0560     0.6940 c6         1 FO2      -0.070400
     16 O           -6.0180    -0.1430    -1.0950 o          1 FO2      -0.519000
     17 C           -4.3900     1.5400     0.6190 ca         1 FO2      -0.099000
     18 N           -2.2000     1.9420     1.5400 nb         1 FO2      -0.671000
     19 C14          3.6120    -1.2130    -0.3150 c6         1 FO2      -0.070400
     20 C13          5.0340    -1.2140    -0.9260 c6         1 FO2       0.165300
     21 N5           5.9820    -0.4110    -0.1040 n3         1 FO2      -0.714600
     22 C15          7.3690    -0.4880    -0.6120 c3         1 FO2       0.152100
     23 C12          5.5160     0.9930     0.0560 c6         1 FO2       0.165300
     24 H1          -3.8400     3.1460     1.9650 h4         1 FO2       0.033100
     25 H2          -4.8210    -2.0010    -2.1330 hn         1 FO2       0.336500
     26 H3          -2.6320    -2.6290    -1.9750 h5         1 FO2       0.055800
     27 H4           2.0750    -0.7180     2.5290 h4         1 FO2       0.040100
     28 H5           0.3380     1.2000    -0.9770 h4         1 FO2       0.162000
     29 H6           3.0070     0.6930    -1.1280 hc         1 FO2       0.044700
     30 H7           3.7780     2.1010     0.7620 hc         1 FO2       0.050200
     31 H8           4.1590     0.6740     1.7220 hc         1 FO2       0.050200
     32 H9          -5.4290     1.8530     0.5560 ha         1 FO2       0.151000
     33 H10          3.6330    -1.7350     0.6510 hc         1 FO2       0.050200
     34 H11          2.9310    -1.7800    -0.9640 hc         1 FO2       0.050200
     35 H12          5.3840    -2.2540    -1.0020 h1         1 FO2       0.028950
     36 H13          4.9860    -0.8130    -1.9490 h1         1 FO2       0.028950
     37 H15          8.0540     0.0600     0.0480 h1         1 FO2       0.029033
     38 H16          7.7070    -1.5320    -0.6600 h1         1 FO2       0.029033
     39 H17          7.4410    -0.0560    -1.6200 h1         1 FO2       0.029033
     40 H18          5.4900     1.4980    -0.9220 h1         1 FO2       0.028950
     41 H19          6.2150     1.5560     0.6920 h1         1 FO2       0.028950
@<TRIPOS>BOND
     1     1    17 ar  
     2     1    18 ar  
     3     1    24 1   
     4     2     9 1   
     5     2    10 1   
     6     2    25 1   
     7     3     5 ar  
     8     3     6 1   
     9     3    18 ar  
    10     4     5 1   
    11     4    10 2   
    12     5     7 ar  
    13     6     8 1   
    14     6    13 1   
    15     7     9 1   
    16     7    17 ar  
    17     8    11 2   
    18     9    16 2   
    19    10    26 1   
    20    11    12 1   
    21    11    27 1   
    22    12    13 2   
    23    12    14 1   
    24    13    28 1   
    25    14    15 1   
    26    14    19 1   
    27    14    29 1   
    28    15    23 1   
    29    15    30 1   
    30    15    31 1   
    31    17    32 1   
    32    19    20 1   
    33    19    33 1   
    34    19    34 1   
    35    20    21 1   
    36    20    35 1   
    37    20    36 1   
    38    21    22 1   
    39    21    23 1   
    40    22    37 1   
    41    22    38 1   
    42    22    39 1   
    43    23    40 1   
    44    23    41 1   
@<TRIPOS>SUBSTRUCTURE
     1 FO2         1 TEMP              0 ****  ****    0 ROOT
