@<TRIPOS>MOLECULE
FO4
  149   148     1     0     0
SMALL
No Charge or Current Charge


@<TRIPOS>ATOM
      1 O1          -2.7270    -9.4820   -34.7810 o          1 FO4      -0.598100
      2 N           -1.0730   -10.4170   -33.5170 ns         1 FO4      -0.492900
      3 C1          -0.9240   -11.2900   -30.6360 c2         1 FO4      -0.245200
      4 O5          -0.8580   -15.0550   -33.1560 o          1 FO4      -0.783500
      5 P           -0.5490   -14.6330   -34.5510 p5         1 FO4       1.389800
      6 O3          -1.1230   -15.5540   -35.5700 o          1 FO4      -0.783500
      7 O4           1.0360   -14.4330   -34.7270 os         1 FO4      -0.582400
      8 C42          1.5610   -14.2710   -36.0520 c3         1 FO4       0.215600
      9 C43          2.6960   -13.2160   -36.0340 c3         1 FO4       0.090600
     10 N1           2.3820   -11.7510   -35.6490 n4         1 FO4      -0.487000
     11 C46          3.6220   -10.8940   -35.9320 c3         1 FO4       0.074900
     12 C45          2.0510   -11.6550   -34.1560 c3         1 FO4       0.074900
     13 C44          1.2060   -11.2160   -36.4790 c3         1 FO4       0.074900
     14 C41         -2.1830   -12.5800   -34.1680 c3         1 FO4       0.206600
     15 C16         -1.8160   -11.5920   -33.0130 c3         1 FO4       0.053700
     16 C           -1.0630   -12.2400   -31.8110 c3         1 FO4       0.232500
     17 O           -1.7180   -13.4300   -31.3710 oh         1 FO4      -0.701000
     18 C3          -1.6330   -10.2000   -28.4530 c3         1 FO4      -0.047200
     19 C4          -2.8860    -9.3450   -28.1540 c3         1 FO4      -0.071400
     20 C5          -2.8190    -8.5740   -26.8140 c3         1 FO4      -0.074400
     21 C6          -1.7490    -7.4620   -26.7790 c3         1 FO4      -0.080400
     22 C7          -1.7020    -6.7000   -25.4310 c3         1 FO4      -0.076400
     23 C8          -0.5920    -5.6260   -25.3780 c3         1 FO4      -0.077400
     24 C9           0.8430    -6.1890   -25.2480 c3         1 FO4      -0.079400
     25 C10          1.9190    -5.2150   -25.7830 c3         1 FO4      -0.073400
     26 C11          3.3710    -5.7420   -25.6900 c3         1 FO4      -0.070400
     27 C12          3.6840    -7.0970   -26.3850 c3         1 FO4      -0.071400
     28 C13          3.4760    -7.1660   -27.9230 c3         1 FO4      -0.071400
     29 C14          2.0480    -7.5530   -28.3850 c3         1 FO4      -0.079400
     30 C15          1.9550    -7.8360   -29.8960 c3         1 FO4      -0.090100
     31 C17         -1.5700    -9.4740   -34.3880 c          1 FO4       0.592100
     32 C18         -0.5380    -8.4460   -34.8700 c3         1 FO4      -0.156400
     33 C19         -0.8130    -7.0200   -34.3410 c3         1 FO4      -0.065400
     34 C20         -0.7550    -6.8930   -32.8010 c3         1 FO4      -0.078400
     35 C21         -0.8920    -5.4290   -32.3310 c3         1 FO4      -0.074400
     36 C22         -0.9060    -5.2730   -30.7960 c3         1 FO4      -0.077400
     37 C23         -0.9840    -3.7970   -30.3500 c3         1 FO4      -0.075400
     38 C24         -1.0060    -3.6270   -28.8180 c3         1 FO4      -0.077400
     39 C25         -1.0400    -2.1440   -28.3810 c3         1 FO4      -0.072400
     40 C26         -0.9780    -1.9270   -26.8510 c3         1 FO4      -0.073400
     41 C27         -2.2510    -2.3660   -26.0900 c3         1 FO4      -0.079400
     42 C28         -2.1440    -2.1190   -24.5660 c3         1 FO4      -0.074400
     43 C29         -3.3240    -2.6860   -23.7430 c3         1 FO4      -0.070400
     44 C30         -4.6800    -1.9970   -24.0090 c3         1 FO4      -0.044200
     45 C31         -5.7800    -2.5550   -23.1240 c2         1 FO4      -0.219200
     46 C32         -6.6930    -3.4900   -23.4440 c2         1 FO4      -0.215200
     47 C33         -6.8480    -4.2150   -24.7690 c3         1 FO4      -0.044200
     48 C34         -6.1760    -5.6050   -24.7480 c3         1 FO4      -0.070400
     49 C35         -6.3820    -6.4360   -26.0360 c3         1 FO4      -0.075400
     50 C36         -5.6720    -5.8680   -27.2880 c3         1 FO4      -0.077400
     51 C37         -5.8530    -6.7650   -28.5340 c3         1 FO4      -0.077400
     52 C38         -5.0840    -6.2830   -29.7860 c3         1 FO4      -0.075400
     53 C39         -5.5980    -4.9470   -30.3700 c3         1 FO4      -0.074400
     54 C40         -4.9120    -4.5660   -31.6950 c3         1 FO4      -0.092100
     55 H1          -0.1120   -10.3000   -33.2290 hn         1 FO4       0.290500
     56 H2           0.0150   -10.7360   -30.6300 ha         1 FO4       0.153000
     57 H5           0.7870   -13.9490   -36.7620 h1         1 FO4       0.061200
     58 H6           1.9690   -15.2220   -36.4160 h1         1 FO4       0.061200
     59 H7           3.1240   -13.1890   -37.0380 hx         1 FO4       0.083200
     60 H8           3.4750   -13.5690   -35.3550 hx         1 FO4       0.083200
     61 H9           3.8660   -10.9520   -36.9940 hx         1 FO4       0.094256
     62 H10          3.4140    -9.8570   -35.6590 hx         1 FO4       0.094256
     63 H11          4.4600   -11.2680   -35.3410 hx         1 FO4       0.094256
     64 H12          1.1260   -12.1990   -33.9600 hx         1 FO4       0.094256
     65 H13          2.8660   -12.0960   -33.5790 hx         1 FO4       0.094256
     66 H14          1.9320   -10.6050   -33.8820 hx         1 FO4       0.094256
     67 H15          0.3050   -11.7830   -36.2370 hx         1 FO4       0.094256
     68 H16          1.0500   -10.1620   -36.2430 hx         1 FO4       0.094256
     69 H17          1.4370   -11.3230   -37.5410 hx         1 FO4       0.094256
     70 H18         -2.7890   -12.0520   -34.9140 h1         1 FO4       0.054200
     71 H19         -2.8190   -13.3840   -33.7720 h1         1 FO4       0.054200
     72 H20         -2.7680   -11.2170   -32.6150 h1         1 FO4       0.089700
     73 H21         -0.0520   -12.5040   -32.1490 h1         1 FO4       0.009700
     74 H22         -1.4050   -14.1430   -32.0130 ho         1 FO4       0.526000
     75 H23         -2.7510   -11.6810   -29.6410 ha         1 FO4       0.195000
     76 H25         -1.4050   -10.8090   -27.5690 hc         1 FO4       0.038700
     77 H26         -0.7680    -9.5440   -28.6110 hc         1 FO4       0.038700
     78 H27         -3.0510    -8.6390   -28.9780 hc         1 FO4       0.044200
     79 H28         -3.7640   -10.0020   -28.1240 hc         1 FO4       0.044200
     80 H29         -3.7980    -8.1280   -26.6130 hc         1 FO4       0.036700
     81 H30         -2.6310    -9.2850   -26.0000 hc         1 FO4       0.036700
     82 H31         -0.7710    -7.9090   -26.9800 hc         1 FO4       0.038200
     83 H32         -1.9450    -6.7490   -27.5890 hc         1 FO4       0.038200
     84 H33         -2.6710    -6.2120   -25.2700 hc         1 FO4       0.039200
     85 H34         -1.5630    -7.4090   -24.6050 hc         1 FO4       0.039200
     86 H35         -0.6650    -5.0150   -26.2820 hc         1 FO4       0.038200
     87 H36         -0.7820    -4.9550   -24.5320 hc         1 FO4       0.038200
     88 H37          1.0450    -6.4180   -24.1940 hc         1 FO4       0.039200
     89 H38          0.9200    -7.1370   -25.7850 hc         1 FO4       0.039200
     90 H39          1.7000    -4.9530   -26.8240 hc         1 FO4       0.036200
     91 H40          1.8550    -4.2770   -25.2170 hc         1 FO4       0.036200
     92 H41          4.0420    -4.9770   -26.1020 hc         1 FO4       0.035200
     93 H42          3.6350    -5.8350   -24.6300 hc         1 FO4       0.035200
     94 H43          4.7410    -7.3160   -26.1890 hc         1 FO4       0.037200
     95 H44          3.1270    -7.9070   -25.8990 hc         1 FO4       0.037200
     96 H45          3.7680    -6.2120   -28.3790 hc         1 FO4       0.033200
     97 H46          4.1690    -7.9190   -28.3170 hc         1 FO4       0.033200
     98 H47          1.7200    -8.4490   -27.8430 hc         1 FO4       0.043200
     99 H48          1.3400    -6.7540   -28.1410 hc         1 FO4       0.043200
    100 H49          0.9300    -8.1120   -30.1680 hc         1 FO4       0.028367
    101 H50          2.2400    -6.9490   -30.4760 hc         1 FO4       0.028367
    102 H51          2.6170    -8.6630   -30.1790 hc         1 FO4       0.028367
    103 H52         -0.5750    -8.4090   -35.9650 hc         1 FO4       0.038200
    104 H53          0.4700    -8.7430   -34.5560 hc         1 FO4       0.038200
    105 H54         -0.0740    -6.3400   -34.7830 hc         1 FO4       0.049700
    106 H55         -1.7970    -6.6860   -34.6950 hc         1 FO4       0.049700
    107 H56         -1.5550    -7.4950   -32.3520 hc         1 FO4       0.042200
    108 H57          0.1970    -7.2990   -32.4400 hc         1 FO4       0.042200
    109 H58         -0.0600    -4.8440   -32.7430 hc         1 FO4       0.037200
    110 H59         -1.8140    -5.0040   -32.7450 hc         1 FO4       0.037200
    111 H60         -1.7570    -5.8260   -30.3810 hc         1 FO4       0.041200
    112 H61          0.0020    -5.7220   -30.3770 hc         1 FO4       0.041200
    113 H62         -0.1220    -3.2550   -30.7590 hc         1 FO4       0.035700
    114 H63         -1.8820    -3.3320   -30.7760 hc         1 FO4       0.035700
    115 H64         -1.8780    -4.1550   -28.4150 hc         1 FO4       0.040200
    116 H65         -0.1120    -4.1050   -28.3980 hc         1 FO4       0.040200
    117 H66         -0.1850    -1.6270   -28.8340 hc         1 FO4       0.036200
    118 H67         -1.9420    -1.6650   -28.7800 hc         1 FO4       0.036200
    119 H68         -0.1070    -2.4580   -26.4480 hc         1 FO4       0.036700
    120 H69         -0.8080    -0.8600   -26.6600 hc         1 FO4       0.036700
    121 H70         -3.1090    -1.8160   -26.4920 hc         1 FO4       0.040700
    122 H71         -2.4450    -3.4300   -26.2670 hc         1 FO4       0.040700
    123 H72         -1.2180    -2.5780   -24.1980 hc         1 FO4       0.036200
    124 H73         -2.0530    -1.0430   -24.3770 hc         1 FO4       0.036200
    125 H74         -3.0830    -2.5860   -22.6780 hc         1 FO4       0.039700
    126 H75         -3.4170    -3.7610   -23.9410 hc         1 FO4       0.039700
    127 H76         -4.9380    -2.1020   -25.0680 hc         1 FO4       0.043700
    128 H77         -4.5770    -0.9190   -23.8320 hc         1 FO4       0.043700
    129 H78         -5.7920    -2.1190   -22.1230 ha         1 FO4       0.164000
    130 H79         -7.4280    -3.7940   -22.6970 ha         1 FO4       0.165000
    131 H80         -6.4310    -3.6230   -25.5910 hc         1 FO4       0.044200
    132 H81         -7.9140    -4.3330   -24.9980 hc         1 FO4       0.044200
    133 H82         -6.5790    -6.1750   -23.9020 hc         1 FO4       0.038700
    134 H83         -5.1010    -5.4880   -24.5610 hc         1 FO4       0.038700
    135 H84         -7.4570    -6.5280   -26.2370 hc         1 FO4       0.038200
    136 H85         -6.0140    -7.4530   -25.8510 hc         1 FO4       0.038200
    137 H86         -4.6020    -5.7510   -27.0760 hc         1 FO4       0.037700
    138 H87         -6.0670    -4.8690   -27.5050 hc         1 FO4       0.037700
    139 H88         -6.9210    -6.8410   -28.7750 hc         1 FO4       0.040200
    140 H89         -5.5190    -7.7810   -28.2940 hc         1 FO4       0.040200
    141 H90         -4.0190    -6.1900   -29.5410 hc         1 FO4       0.039200
    142 H91         -5.1610    -7.0600   -30.5570 hc         1 FO4       0.039200
    143 H92         -6.6800    -5.0150   -30.5380 hc         1 FO4       0.036200
    144 H93         -5.4340    -4.1390   -29.6470 hc         1 FO4       0.036200
    145 H94         -5.3070    -3.6150   -32.0710 hc         1 FO4       0.031033
    146 H95         -3.8330    -4.4550   -31.5500 hc         1 FO4       0.031033
    147 H96         -5.0830    -5.3360   -32.4570 hc         1 FO4       0.031033
    148 O2          -0.9960   -13.1050   -34.7940 os         1 FO4      -0.661400
    149 C2          -1.8170   -11.1150   -29.6450 c2         1 FO4      -0.189200
@<TRIPOS>BOND
     1     1    31 2   
     2     2    15 1   
     3     2    31 1   
     4     2    55 1   
     5     3    16 1   
     6     3    56 1   
     7     3   149 2   
     8     4     5 1   
     9     5     6 1   
    10     5     7 1   
    11     5   148 1   
    12     7     8 1   
    13     8     9 1   
    14     8    57 1   
    15     8    58 1   
    16     9    10 1   
    17     9    59 1   
    18     9    60 1   
    19    10    11 1   
    20    10    12 1   
    21    10    13 1   
    22    11    61 1   
    23    11    62 1   
    24    11    63 1   
    25    12    64 1   
    26    12    65 1   
    27    12    66 1   
    28    13    67 1   
    29    13    68 1   
    30    13    69 1   
    31    14    15 1   
    32    14    70 1   
    33    14    71 1   
    34    14   148 1   
    35    15    16 1   
    36    15    72 1   
    37    16    17 1   
    38    16    73 1   
    39    17    74 1   
    40    18    19 1   
    41    18    76 1   
    42    18    77 1   
    43    18   149 1   
    44    19    20 1   
    45    19    78 1   
    46    19    79 1   
    47    20    21 1   
    48    20    80 1   
    49    20    81 1   
    50    21    22 1   
    51    21    82 1   
    52    21    83 1   
    53    22    23 1   
    54    22    84 1   
    55    22    85 1   
    56    23    24 1   
    57    23    86 1   
    58    23    87 1   
    59    24    25 1   
    60    24    88 1   
    61    24    89 1   
    62    25    26 1   
    63    25    90 1   
    64    25    91 1   
    65    26    27 1   
    66    26    92 1   
    67    26    93 1   
    68    27    28 1   
    69    27    94 1   
    70    27    95 1   
    71    28    29 1   
    72    28    96 1   
    73    28    97 1   
    74    29    30 1   
    75    29    98 1   
    76    29    99 1   
    77    30   100 1   
    78    30   101 1   
    79    30   102 1   
    80    31    32 1   
    81    32    33 1   
    82    32   103 1   
    83    32   104 1   
    84    33    34 1   
    85    33   105 1   
    86    33   106 1   
    87    34    35 1   
    88    34   107 1   
    89    34   108 1   
    90    35    36 1   
    91    35   109 1   
    92    35   110 1   
    93    36    37 1   
    94    36   111 1   
    95    36   112 1   
    96    37    38 1   
    97    37   113 1   
    98    37   114 1   
    99    38    39 1   
   100    38   115 1   
   101    38   116 1   
   102    39    40 1   
   103    39   117 1   
   104    39   118 1   
   105    40    41 1   
   106    40   119 1   
   107    40   120 1   
   108    41    42 1   
   109    41   121 1   
   110    41   122 1   
   111    42    43 1   
   112    42   123 1   
   113    42   124 1   
   114    43    44 1   
   115    43   125 1   
   116    43   126 1   
   117    44    45 1   
   118    44   127 1   
   119    44   128 1   
   120    45    46 2   
   121    45   129 1   
   122    46    47 1   
   123    46   130 1   
   124    47    48 1   
   125    47   131 1   
   126    47   132 1   
   127    48    49 1   
   128    48   133 1   
   129    48   134 1   
   130    49    50 1   
   131    49   135 1   
   132    49   136 1   
   133    50    51 1   
   134    50   137 1   
   135    50   138 1   
   136    51    52 1   
   137    51   139 1   
   138    51   140 1   
   139    52    53 1   
   140    52   141 1   
   141    52   142 1   
   142    53    54 1   
   143    53   143 1   
   144    53   144 1   
   145    54   145 1   
   146    54   146 1   
   147    54   147 1   
   148    75   149 1   
@<TRIPOS>SUBSTRUCTURE
     1 FO4         1 TEMP              0 ****  ****    0 ROOT
