@<TRIPOS>MOLECULE
FO4
  149   148     1     0     0
SMALL
bcc


@<TRIPOS>ATOM
      1 O1          -2.7740    -9.1430   -34.3610 o          1 FO4      -0.598100
      2 N           -1.0500   -10.3370   -33.5280 ns         1 FO4      -0.559900
      3 C1          -0.9810   -11.0240   -30.6610 c2         1 FO4      -0.195200
      4 O5          -0.6000   -14.9720   -33.0610 o          1 FO4      -0.783500
      5 P           -0.6840   -14.5860   -34.5150 p5         1 FO4       1.389800
      6 O3          -1.5540   -15.3510   -35.4550 o          1 FO4      -0.783500
      7 O4           0.8570   -14.5280   -35.0540 os         1 FO4      -0.559200
      8 C42          1.1110   -14.3360   -36.4300 c3         1 FO4       0.192400
      9 C43          2.4010   -13.5820   -36.6500 c3         1 FO4       0.118800
     10 N1           2.4280   -12.1180   -36.2810 n4         1 FO4      -0.599800
     11 C46          3.7230   -11.5700   -36.7760 c3         1 FO4       0.103100
     12 C45          2.3690   -11.9130   -34.8050 c3         1 FO4       0.103100
     13 C44          1.3140   -11.3710   -36.9280 c3         1 FO4       0.103100
     14 C41         -2.1770   -12.4470   -34.0470 c3         1 FO4       0.183400
     15 C16         -1.8250   -11.4260   -32.9730 c3         1 FO4       0.053700
     16 C           -1.0360   -12.0240   -31.7790 c3         1 FO4       0.209300
     17 O           -1.5960   -13.2200   -31.3400 oh         1 FO4      -0.638800
     18 C3          -1.3030   -10.2350   -28.3090 c3         1 FO4      -0.047200
     19 C4          -2.7080    -9.9010   -27.7990 c3         1 FO4      -0.071400
     20 C5          -2.7230    -9.1050   -26.4990 c3         1 FO4      -0.074400
     21 C6          -2.0190    -7.7580   -26.5840 c3         1 FO4      -0.080400
     22 C7          -2.0760    -6.9550   -25.2880 c3         1 FO4      -0.076400
     23 C8          -1.1010    -5.7820   -25.3000 c3         1 FO4      -0.077400
     24 C9           0.3470    -6.2010   -25.0560 c3         1 FO4      -0.079400
     25 C10          1.3590    -5.1810   -25.5610 c3         1 FO4      -0.073400
     26 C11          2.8130    -5.5710   -25.3090 c3         1 FO4      -0.070400
     27 C12          3.2770    -6.8960   -25.9190 c3         1 FO4      -0.071400
     28 C13          3.2330    -6.9840   -27.4500 c3         1 FO4      -0.071400
     29 C14          1.9190    -7.4810   -28.0530 c3         1 FO4      -0.079400
     30 C15          2.0110    -7.6820   -29.5590 c3         1 FO4      -0.090100
     31 C17         -1.5720    -9.2930   -34.1990 c          1 FO4       0.659100
     32 C18         -0.5610    -8.3040   -34.7380 c3         1 FO4      -0.156400
     33 C19         -0.8320    -6.8870   -34.2430 c3         1 FO4      -0.065400
     34 C20         -0.7160    -6.7470   -32.7290 c3         1 FO4      -0.078400
     35 C21         -0.8520    -5.3040   -32.2640 c3         1 FO4      -0.074400
     36 C22         -0.8230    -5.1450   -30.7480 c3         1 FO4      -0.077400
     37 C23         -0.8970    -3.6900   -30.3080 c3         1 FO4      -0.075400
     38 C24         -0.9410    -3.5050   -28.7960 c3         1 FO4      -0.077400
     39 C25         -0.9400    -2.0370   -28.3850 c3         1 FO4      -0.072400
     40 C26         -0.9040    -1.7960   -26.8780 c3         1 FO4      -0.073400
     41 C27         -2.1660    -2.2290   -26.1420 c3         1 FO4      -0.079400
     42 C28         -2.1060    -1.9220   -24.6490 c3         1 FO4      -0.074400
     43 C29         -3.2870    -2.4610   -23.8480 c3         1 FO4      -0.070400
     44 C30         -4.6460    -1.9070   -24.2870 c3         1 FO4      -0.044200
     45 C31         -5.7500    -2.3920   -23.4000 c2         1 FO4      -0.169200
     46 C32         -6.6340    -3.3510   -23.6770 c2         1 FO4      -0.165200
     47 C33         -6.7130    -4.1520   -24.9410 c3         1 FO4      -0.044200
     48 C34         -6.0120    -5.5060   -24.7930 c3         1 FO4      -0.070400
     49 C35         -6.0920    -6.3960   -26.0300 c3         1 FO4      -0.075400
     50 C36         -5.4300    -5.8040   -27.2710 c3         1 FO4      -0.077400
     51 C37         -5.3930    -6.7850   -28.4380 c3         1 FO4      -0.077400
     52 C38         -4.7060    -6.2400   -29.6870 c3         1 FO4      -0.075400
     53 C39         -5.4520    -5.0930   -30.3590 c3         1 FO4      -0.074400
     54 C40         -4.7820    -4.6190   -31.6410 c3         1 FO4      -0.092100
     55 H1          -0.0480   -10.3990   -33.4660 hn         1 FO4       0.290500
     56 H2          -0.6170   -10.0360   -30.9330 ha         1 FO4       0.103000
     57 H5           0.2820   -13.8500   -36.9500 h1         1 FO4       0.061200
     58 H6           1.2560   -15.3010   -36.9240 h1         1 FO4       0.061200
     59 H7           2.6330   -13.6300   -37.7140 hx         1 FO4       0.083200
     60 H8           3.2230   -14.0510   -36.1080 hx         1 FO4       0.083200
     61 H9           3.7790   -11.6980   -37.8540 hx         1 FO4       0.094256
     62 H10          3.7800   -10.5140   -36.5290 hx         1 FO4       0.094256
     63 H11          4.5400   -12.1040   -36.2980 hx         1 FO4       0.094256
     64 H12          1.3910   -12.1940   -34.4330 hx         1 FO4       0.094256
     65 H13          3.1350   -12.5190   -34.3290 hx         1 FO4       0.094256
     66 H14          2.5590   -10.8630   -34.5970 hx         1 FO4       0.094256
     67 H15          0.3630   -11.6850   -36.5110 hx         1 FO4       0.094256
     68 H16          1.4560   -10.3100   -36.7420 hx         1 FO4       0.094256
     69 H17          1.3310   -11.5530   -37.9990 hx         1 FO4       0.094256
     70 H18         -2.7600   -11.9570   -34.8290 h1         1 FO4       0.054200
     71 H19         -2.8180   -13.2230   -33.6170 h1         1 FO4       0.054200
     72 H20         -2.7710   -11.0240   -32.5970 h1         1 FO4       0.089700
     73 H21          0.0010   -12.1860   -32.1250 h1         1 FO4       0.009700
     74 H22         -1.2690   -13.9380   -31.9330 ho         1 FO4       0.487000
     75 H23         -1.7050   -12.2370   -29.1220 ha         1 FO4       0.145000
     76 H25         -0.7080   -10.6180   -27.4720 hc         1 FO4       0.038700
     77 H26         -0.7990    -9.3300   -28.6590 hc         1 FO4       0.038700
     78 H27         -3.2440    -9.3520   -28.5810 hc         1 FO4       0.044200
     79 H28         -3.2620   -10.8320   -27.6480 hc         1 FO4       0.044200
     80 H29         -3.7620    -8.9530   -26.1860 hc         1 FO4       0.036700
     81 H30         -2.2550    -9.7030   -25.7090 hc         1 FO4       0.036700
     82 H31         -0.9740    -7.9120   -26.8670 hc         1 FO4       0.038200
     83 H32         -2.4600    -7.1620   -27.3910 hc         1 FO4       0.038200
     84 H33         -3.0980    -6.5960   -25.1320 hc         1 FO4       0.039200
     85 H34         -1.8570    -7.6090   -24.4360 hc         1 FO4       0.039200
     86 H35         -1.1780    -5.2730   -26.2670 hc         1 FO4       0.038200
     87 H36         -1.3870    -5.0350   -24.5540 hc         1 FO4       0.038200
     88 H37          0.5010    -6.3700   -23.9850 hc         1 FO4       0.039200
     89 H38          0.5410    -7.1670   -25.5310 hc         1 FO4       0.039200
     90 H39          1.1990    -5.0140   -26.6310 hc         1 FO4       0.036200
     91 H40          1.1630    -4.2140   -25.0840 hc         1 FO4       0.036200
     92 H41          3.4620    -4.7710   -25.6810 hc         1 FO4       0.035200
     93 H42          2.9800    -5.6160   -24.2270 hc         1 FO4       0.035200
     94 H43          4.3090    -7.0510   -25.5960 hc         1 FO4       0.037200
     95 H44          2.7110    -7.7290   -25.4900 hc         1 FO4       0.037200
     96 H45          3.4830    -6.0080   -27.8820 hc         1 FO4       0.033200
     97 H46          4.0250    -7.6640   -27.7820 hc         1 FO4       0.033200
     98 H47          1.6400    -8.4270   -27.5760 hc         1 FO4       0.043200
     99 H48          1.1070    -6.7850   -27.8330 hc         1 FO4       0.043200
    100 H49          1.0590    -8.0140   -29.9770 hc         1 FO4       0.028367
    101 H50          2.2820    -6.7530   -30.0660 hc         1 FO4       0.028367
    102 H51          2.7640    -8.4290   -29.8140 hc         1 FO4       0.028367
    103 H52         -0.6240    -8.3320   -35.8300 hc         1 FO4       0.038200
    104 H53          0.4600    -8.5940   -34.4750 hc         1 FO4       0.038200
    105 H54         -0.1200    -6.2130   -34.7270 hc         1 FO4       0.049700
    106 H55         -1.8250    -6.5680   -34.5690 hc         1 FO4       0.049700
    107 H56         -1.4820    -7.3580   -32.2410 hc         1 FO4       0.042200
    108 H57          0.2500    -7.1470   -32.4000 hc         1 FO4       0.042200
    109 H58         -0.0490    -4.7050   -32.7070 hc         1 FO4       0.037200
    110 H59         -1.7900    -4.8870   -32.6490 hc         1 FO4       0.037200
    111 H60         -1.6580    -5.7060   -30.3130 hc         1 FO4       0.041200
    112 H61          0.0880    -5.6030   -30.3480 hc         1 FO4       0.041200
    113 H62         -0.0340    -3.1490   -30.7120 hc         1 FO4       0.035700
    114 H63         -1.7820    -3.2200   -30.7520 hc         1 FO4       0.035700
    115 H64         -1.8270    -4.0120   -28.4000 hc         1 FO4       0.040200
    116 H65         -0.0770    -4.0070   -28.3420 hc         1 FO4       0.040200
    117 H66         -0.0700    -1.5510   -28.8390 hc         1 FO4       0.036200
    118 H67         -1.8200    -1.5400   -28.8090 hc         1 FO4       0.036200
    119 H68         -0.0380    -2.3120   -26.4470 hc         1 FO4       0.036700
    120 H69         -0.7390    -0.7300   -26.6950 hc         1 FO4       0.036700
    121 H70         -3.0280    -1.7330   -26.5990 hc         1 FO4       0.040700
    122 H71         -2.3320    -3.3030   -26.2750 hc         1 FO4       0.040700
    123 H72         -1.1850    -2.3490   -24.2380 hc         1 FO4       0.036200
    124 H73         -2.0280    -0.8390   -24.5030 hc         1 FO4       0.036200
    125 H74         -3.1340    -2.2380   -22.7880 hc         1 FO4       0.039700
    126 H75         -3.3090    -3.5530   -23.9270 hc         1 FO4       0.039700
    127 H76         -4.8330    -2.1800   -25.3270 hc         1 FO4       0.043700
    128 H77         -4.6070    -0.8130   -24.2540 hc         1 FO4       0.043700
    129 H78         -5.7930    -1.9340   -22.4160 ha         1 FO4       0.114000
    130 H79         -7.3470    -3.6190   -22.9020 ha         1 FO4       0.115000
    131 H80         -6.2750    -3.6000   -25.7740 hc         1 FO4       0.044200
    132 H81         -7.7620    -4.3220   -25.2030 hc         1 FO4       0.044200
    133 H82         -6.4410    -6.0390   -23.9390 hc         1 FO4       0.038700
    134 H83         -4.9600    -5.3330   -24.5420 hc         1 FO4       0.038700
    135 H84         -7.1400    -6.6260   -26.2500 hc         1 FO4       0.038200
    136 H85         -5.6140    -7.3540   -25.8000 hc         1 FO4       0.038200
    137 H86         -4.4040    -5.5020   -27.0260 hc         1 FO4       0.037700
    138 H87         -5.9500    -4.8900   -27.5700 hc         1 FO4       0.037700
    139 H88         -6.4140    -7.0920   -28.6920 hc         1 FO4       0.040200
    140 H89         -4.8770    -7.6960   -28.1160 hc         1 FO4       0.040200
    141 H90         -3.6910    -5.9150   -29.4270 hc         1 FO4       0.039200
    142 H91         -4.5820    -7.0520   -30.4120 hc         1 FO4       0.039200
    143 H92         -6.4740    -5.4150   -30.5800 hc         1 FO4       0.036200
    144 H93         -5.5420    -4.2510   -29.6680 hc         1 FO4       0.036200
    145 H94         -5.3400    -3.8060   -32.1060 hc         1 FO4       0.031033
    146 H95         -3.7710    -4.2550   -31.4480 hc         1 FO4       0.031033
    147 H96         -4.7010    -5.4270   -32.3700 hc         1 FO4       0.031033
    148 O2          -0.9960   -12.9790   -34.6280 os         1 FO4      -0.638200
    149 C2          -1.3380   -11.2540   -29.4030 c2         1 FO4      -0.139200
@<TRIPOS>BOND
     1     1    31 2   
     2     2    15 1   
     3     2    31 1   
     4     2    55 1   
     5     3    16 1   
     6     3    56 1   
     7     3   149 2   
     8     4     5 1   
     9     5     6 1   
    10     5     7 1   
    11     5   148 1   
    12     7     8 1   
    13     8     9 1   
    14     8    57 1   
    15     8    58 1   
    16     9    10 1   
    17     9    59 1   
    18     9    60 1   
    19    10    11 1   
    20    10    12 1   
    21    10    13 1   
    22    11    61 1   
    23    11    62 1   
    24    11    63 1   
    25    12    64 1   
    26    12    65 1   
    27    12    66 1   
    28    13    67 1   
    29    13    68 1   
    30    13    69 1   
    31    14    15 1   
    32    14    70 1   
    33    14    71 1   
    34    14   148 1   
    35    15    16 1   
    36    15    72 1   
    37    16    17 1   
    38    16    73 1   
    39    17    74 1   
    40    18    19 1   
    41    18    76 1   
    42    18    77 1   
    43    18   149 1   
    44    19    20 1   
    45    19    78 1   
    46    19    79 1   
    47    20    21 1   
    48    20    80 1   
    49    20    81 1   
    50    21    22 1   
    51    21    82 1   
    52    21    83 1   
    53    22    23 1   
    54    22    84 1   
    55    22    85 1   
    56    23    24 1   
    57    23    86 1   
    58    23    87 1   
    59    24    25 1   
    60    24    88 1   
    61    24    89 1   
    62    25    26 1   
    63    25    90 1   
    64    25    91 1   
    65    26    27 1   
    66    26    92 1   
    67    26    93 1   
    68    27    28 1   
    69    27    94 1   
    70    27    95 1   
    71    28    29 1   
    72    28    96 1   
    73    28    97 1   
    74    29    30 1   
    75    29    98 1   
    76    29    99 1   
    77    30   100 1   
    78    30   101 1   
    79    30   102 1   
    80    31    32 1   
    81    32    33 1   
    82    32   103 1   
    83    32   104 1   
    84    33    34 1   
    85    33   105 1   
    86    33   106 1   
    87    34    35 1   
    88    34   107 1   
    89    34   108 1   
    90    35    36 1   
    91    35   109 1   
    92    35   110 1   
    93    36    37 1   
    94    36   111 1   
    95    36   112 1   
    96    37    38 1   
    97    37   113 1   
    98    37   114 1   
    99    38    39 1   
   100    38   115 1   
   101    38   116 1   
   102    39    40 1   
   103    39   117 1   
   104    39   118 1   
   105    40    41 1   
   106    40   119 1   
   107    40   120 1   
   108    41    42 1   
   109    41   121 1   
   110    41   122 1   
   111    42    43 1   
   112    42   123 1   
   113    42   124 1   
   114    43    44 1   
   115    43   125 1   
   116    43   126 1   
   117    44    45 1   
   118    44   127 1   
   119    44   128 1   
   120    45    46 2   
   121    45   129 1   
   122    46    47 1   
   123    46   130 1   
   124    47    48 1   
   125    47   131 1   
   126    47   132 1   
   127    48    49 1   
   128    48   133 1   
   129    48   134 1   
   130    49    50 1   
   131    49   135 1   
   132    49   136 1   
   133    50    51 1   
   134    50   137 1   
   135    50   138 1   
   136    51    52 1   
   137    51   139 1   
   138    51   140 1   
   139    52    53 1   
   140    52   141 1   
   141    52   142 1   
   142    53    54 1   
   143    53   143 1   
   144    53   144 1   
   145    54   145 1   
   146    54   146 1   
   147    54   147 1   
   148    75   149 1   
@<TRIPOS>SUBSTRUCTURE
     1 FO4         1 TEMP              0 ****  ****    0 ROOT
