@<TRIPOS>MOLECULE
FO5
   35    37     1     0     0
SMALL
No Charge or Current Charge


@<TRIPOS>ATOM
      1 C            4.9410     0.2810     0.3570 c          1 FO5       0.614100
      2 N            6.5260     1.4960    -2.4930 n1         1 FO5      -0.435000
      3 O            5.4590     0.8330     1.3200 o          1 FO5      -0.575100
      4 S           -4.9750     1.5030    -0.3890 ss         1 FO5       0.295000
      5 C1           5.8200    -0.3210    -0.7370 c3         1 FO5      -0.100300
      6 N1           3.5310     0.1390     0.2760 n          1 FO5      -0.413800
      7 O1          -1.1050    -1.4960     0.2990 os         1 FO5      -0.088700
      8 C2           6.2200     0.6990    -1.7010 c1         1 FO5       0.308900
      9 N2          -2.5050    -1.6540     0.2510 nc         1 FO5      -0.365300
     10 C3           2.7060     0.6180     1.4280 c6         1 FO5       0.098500
     11 N3          -1.9740     0.5280    -0.0750 nd         1 FO5      -0.723000
     12 C4           1.2530     0.0900     1.4370 c6         1 FO5      -0.095400
     13 C5           0.5500     0.3520     0.0860 c6         1 FO5      -0.098000
     14 C6           1.3820    -0.3100    -1.0370 c6         1 FO5      -0.095400
     15 C7           2.8370     0.2150    -1.0500 c6         1 FO5       0.098500
     16 C8          -0.8710    -0.1680     0.0960 cc         1 FO5       0.492300
     17 C9          -2.9530    -0.4290     0.0290 cd         1 FO5       0.644500
     18 C10         -4.3460    -0.1220    -0.0930 cd         1 FO5      -0.298500
     19 C11         -5.3400    -1.0660     0.0080 cc         1 FO5      -0.080000
     20 C12         -6.6320    -0.5070    -0.1500 cc         1 FO5      -0.141000
     21 C13         -6.6270     0.8490    -0.3700 cd         1 FO5      -0.248000
     22 H1           6.7310    -0.7230    -0.2830 hc         1 FO5       0.086700
     23 H1A          5.2930    -1.1100    -1.2800 hc         1 FO5       0.086700
     24 H3           3.1860     0.3230     2.3720 h1         1 FO5       0.060950
     25 H3A          2.6860     1.7180     1.4080 h1         1 FO5       0.060950
     26 H4           1.2660    -0.9880     1.6540 hc         1 FO5       0.065950
     27 H4A          0.6950     0.5660     2.2540 hc         1 FO5       0.065950
     28 H5           0.5240     1.4360    -0.0910 hc         1 FO5       0.084700
     29 H6           1.3970    -1.4010    -0.9030 hc         1 FO5       0.065950
     30 H6A          0.9160    -0.1230    -2.0140 hc         1 FO5       0.065950
     31 H7           2.8300     1.2660    -1.3750 h1         1 FO5       0.060950
     32 H7A          3.3850    -0.3480    -1.8170 h1         1 FO5       0.060950
     33 H11         -5.1830    -2.1270     0.1880 ha         1 FO5       0.148000
     34 H12         -7.5340    -1.1120    -0.0990 ha         1 FO5       0.139000
     35 H13         -7.4730     1.5090    -0.5210 h4         1 FO5       0.152000
@<TRIPOS>BOND
     1     1     3 2   
     2     1     5 1   
     3     1     6 1   
     4     2     8 3   
     5     4    18 1   
     6     4    21 1   
     7     5     8 1   
     8     5    22 1   
     9     5    23 1   
    10     6    10 1   
    11     6    15 1   
    12     7     9 1   
    13     7    16 1   
    14     9    17 2   
    15    10    12 1   
    16    10    24 1   
    17    10    25 1   
    18    11    16 2   
    19    11    17 1   
    20    12    13 1   
    21    12    26 1   
    22    12    27 1   
    23    13    14 1   
    24    13    16 1   
    25    13    28 1   
    26    14    15 1   
    27    14    29 1   
    28    14    30 1   
    29    15    31 1   
    30    15    32 1   
    31    17    18 1   
    32    18    19 2   
    33    19    20 1   
    34    19    33 1   
    35    20    21 2   
    36    20    34 1   
    37    21    35 1   
@<TRIPOS>SUBSTRUCTURE
     1 FO5         1 TEMP              0 ****  ****    0 ROOT
