@<TRIPOS>MOLECULE
FO5
   35    37     1     0     0
SMALL
bcc


@<TRIPOS>ATOM
      1 C            4.5930     0.1900     0.2370 c          1 FO5       0.681100
      2 N            7.5590    -1.5070    -0.2890 n1         1 FO5      -0.345800
      3 O            5.1270     0.1440     1.3330 o          1 FO5      -0.575100
      4 S           -4.9470     0.9810    -0.3790 ss         1 FO5       0.005200
      5 C1           5.2850    -0.4470    -0.9680 c3         1 FO5      -0.100300
      6 N1           3.4120     0.7840     0.0020 n          1 FO5      -0.480800
      7 O1          -0.8060    -1.2880     0.4190 os         1 FO5      -0.133100
      8 C2           6.5520    -1.0300    -0.5670 c1         1 FO5       0.219700
      9 N2          -2.1190    -1.6750     0.4600 nc         1 FO5      -0.365300
     10 C3           2.6540     1.3840     1.0890 c6         1 FO5       0.098500
     11 N3          -1.9550     0.4810    -0.1020 nd         1 FO5      -0.723000
     12 C4           1.3220     0.6690     1.2710 c6         1 FO5      -0.095400
     13 C5           0.5360     0.6790    -0.0460 c6         1 FO5      -0.098000
     14 C6           1.3840     0.0760    -1.1740 c6         1 FO5      -0.095400
     15 C7           2.7170     0.8070    -1.2730 c6         1 FO5       0.098500
     16 C8          -0.7740    -0.0060     0.0810 cc         1 FO5       0.536700
     17 C9          -2.7640    -0.5910     0.1430 cd         1 FO5       0.644500
     18 C10         -4.2030    -0.5090     0.0540 cd         1 FO5      -0.153600
     19 C11         -5.1330    -1.4890     0.2710 cc         1 FO5      -0.098000
     20 C12         -6.4570    -1.0270     0.0860 cc         1 FO5      -0.159000
     21 C13         -6.5050     0.2900    -0.2680 cd         1 FO5      -0.121100
     22 H1           4.6710    -1.2340    -1.4120 hc         1 FO5       0.086700
     23 H1A          5.4760     0.2880    -1.7530 hc         1 FO5       0.086700
     24 H3           3.2360     1.3450     2.0050 h1         1 FO5       0.060950
     25 H3A          2.4840     2.4390     0.8510 h1         1 FO5       0.060950
     26 H4           1.5040    -0.3570     1.6010 hc         1 FO5       0.065950
     27 H4A          0.7530     1.1710     2.0560 hc         1 FO5       0.065950
     28 H5           0.3050     1.7160    -0.3040 hc         1 FO5       0.084700
     29 H6           1.5660    -0.9850    -0.9880 hc         1 FO5       0.065950
     30 H6A          0.8630     0.1590    -2.1290 hc         1 FO5       0.065950
     31 H7           2.5510     1.8500    -1.5590 h1         1 FO5       0.060950
     32 H7A          3.3210     0.3600    -2.0570 h1         1 FO5       0.060950
     33 H11         -4.8770    -2.5010     0.5530 ha         1 FO5       0.166000
     34 H12         -7.3350    -1.6430     0.2120 ha         1 FO5       0.157000
     35 H13         -7.3780     0.8900    -0.4710 h4         1 FO5       0.170000
@<TRIPOS>BOND
     1     1     3 2   
     2     1     5 1   
     3     1     6 1   
     4     2     8 3   
     5     4    18 1   
     6     4    21 1   
     7     5     8 1   
     8     5    22 1   
     9     5    23 1   
    10     6    10 1   
    11     6    15 1   
    12     7     9 1   
    13     7    16 1   
    14     9    17 2   
    15    10    12 1   
    16    10    24 1   
    17    10    25 1   
    18    11    16 2   
    19    11    17 1   
    20    12    13 1   
    21    12    26 1   
    22    12    27 1   
    23    13    14 1   
    24    13    16 1   
    25    13    28 1   
    26    14    15 1   
    27    14    29 1   
    28    14    30 1   
    29    15    31 1   
    30    15    32 1   
    31    17    18 1   
    32    18    19 2   
    33    19    20 1   
    34    19    33 1   
    35    20    21 2   
    36    20    34 1   
    37    21    35 1   
@<TRIPOS>SUBSTRUCTURE
     1 FO5         1 TEMP              0 ****  ****    0 ROOT
