@<TRIPOS>MOLECULE
FO7
   33    34     1     0     0
SMALL
No Charge or Current Charge


@<TRIPOS>ATOM
      1 Br1          0.2490    -2.8480    -0.7880 br         1 FO7      -0.053100
      2 C3           0.5590    -0.9460    -0.6500 ca         1 FO7      -0.068900
      3 C2           1.8620    -0.4190    -0.4350 ca         1 FO7       0.091700
      4 C14          3.0330    -1.4100    -0.2820 c3         1 FO7       0.191900
      5 O4           3.5410    -1.8150    -1.5650 oh         1 FO7      -0.636000
      6 C4          -0.5510    -0.0930    -0.7690 ca         1 FO7       0.217100
      7 O3          -1.8030    -0.6270    -0.9840 os         1 FO7      -0.226200
      8 C11         -2.9220    -0.2010    -0.3050 ca         1 FO7       0.120100
      9 C10         -4.1620    -0.2240    -0.9630 ca         1 FO7      -0.124000
     10 C9          -5.3220     0.1920    -0.2910 ca         1 FO7       0.149000
     11 Cl1         -6.8720     0.1700    -1.1200 cl         1 FO7      -0.171000
     12 C12         -2.8470     0.2200     1.0370 ca         1 FO7      -0.160000
     13 C13         -4.0110     0.6340     1.7020 ca         1 FO7       0.195000
     14 F3          -3.9390     1.0410     2.9870 f          1 FO7      -0.163000
     15 C8          -5.2490     0.6250     1.0420 ca         1 FO7      -0.145000
     16 C5          -0.3850     1.2940    -0.6960 ca         1 FO7      -0.203000
     17 C6           0.8880     1.8380    -0.4970 ca         1 FO7       0.026000
     18 C1           2.0220     1.0030    -0.3720 ca         1 FO7      -0.278500
     19 S1           3.6200     1.8490    -0.1210 sy         1 FO7       0.995500
     20 O1           4.7100     1.0230    -0.6570 o          1 FO7      -0.486000
     21 O2           3.4720     3.2440    -0.5630 o          1 FO7      -0.486000
     22 C7           3.8110     1.8930     1.6970 c3         1 FO7       0.004300
     23 F1           2.7830     2.5620     2.2740 f          1 FO7      -0.097000
     24 F2           3.8230     0.6460     2.2270 f          1 FO7      -0.097000
     25 H1           3.8320    -0.9840     0.3320 h1         1 FO7       0.048200
     26 H2           2.6950    -2.2870     0.2840 h1         1 FO7       0.048200
     27 H3           4.3160    -2.3940    -1.3970 ho         1 FO7       0.454000
     28 H4          -4.2230    -0.5600    -1.9950 ha         1 FO7       0.155000
     29 H5          -1.8990     0.2230     1.5680 ha         1 FO7       0.155000
     30 H6          -6.1450     0.9460     1.5640 ha         1 FO7       0.154000
     31 H7          -1.2420     1.9540    -0.8020 ha         1 FO7       0.139000
     32 H8           0.9820     2.9230    -0.4430 ha         1 FO7       0.152000
     33 H11          4.7550     2.4010     1.9050 h3         1 FO7       0.097700
@<TRIPOS>BOND
     1     1     2 1   
     2     2     3 ar  
     3     2     6 ar  
     4     3     4 1   
     5     3    18 ar  
     6     4     5 1   
     7     4    25 1   
     8     4    26 1   
     9     5    27 1   
    10     6     7 1   
    11     6    16 ar  
    12     7     8 1   
    13     8     9 ar  
    14     8    12 ar  
    15     9    10 ar  
    16     9    28 1   
    17    10    11 1   
    18    10    15 ar  
    19    12    13 ar  
    20    12    29 1   
    21    13    14 1   
    22    13    15 ar  
    23    15    30 1   
    24    16    17 ar  
    25    16    31 1   
    26    17    18 ar  
    27    17    32 1   
    28    18    19 1   
    29    19    20 2   
    30    19    21 2   
    31    19    22 1   
    32    22    23 1   
    33    22    24 1   
    34    22    33 1   
@<TRIPOS>SUBSTRUCTURE
     1 FO7         1 TEMP              0 ****  ****    0 ROOT
