@<TRIPOS>MOLECULE
FO7
   33    34     1     0     0
SMALL
abcg2


@<TRIPOS>ATOM
      1 BR1          0.4780    -2.9440    -0.3610 br         1 FO7      -0.053100
      2 C3           0.6570    -1.0740    -0.2520 ca         1 FO7      -0.068900
      3 C2           1.9080    -0.4630    -0.3060 ca         1 FO7       0.091700
      4 C14          3.1380    -1.3260    -0.4620 c3         1 FO7       0.191900
      5 O4           3.1720    -1.7720    -1.7960 oh         1 FO7      -0.636000
      6 C4          -0.5240    -0.3390    -0.1030 ca         1 FO7       0.217100
      7 O3          -1.6700    -1.0380    -0.0460 os         1 FO7      -0.226200
      8 C11         -2.8580    -0.3800     0.1610 ca         1 FO7       0.120100
      9 C10         -3.6080    -0.0010    -0.9390 ca         1 FO7      -0.124000
     10 C9          -4.8290     0.6150    -0.7090 ca         1 FO7       0.149000
     11 CL1         -5.7930     1.0950    -2.0570 cl         1 FO7      -0.171000
     12 C12         -3.2810    -0.1570     1.4610 ca         1 FO7      -0.160000
     13 C13         -4.5040     0.4610     1.6310 ca         1 FO7       0.195000
     14 F3          -4.9390     0.6860     2.8730 f          1 FO7      -0.163000
     15 C8          -5.2990     0.8590     0.5720 ca         1 FO7      -0.145000
     16 C5          -0.4680     1.0450    -0.0290 ca         1 FO7      -0.203000
     17 C6           0.7540     1.6770    -0.1080 ca         1 FO7       0.026000
     18 C1           1.9240     0.9400    -0.2550 ca         1 FO7      -0.278500
     19 S1           3.3980     1.9230    -0.3880 sy         1 FO7       0.995500
     20 O1           4.4220     1.2700    -1.1850 o          1 FO7      -0.486000
     21 O2           3.0130     3.2900    -0.7100 o          1 FO7      -0.486000
     22 C7           4.0140     2.0020     1.3440 c3         1 FO7       0.004300
     23 F1           3.0460     2.5570     2.0870 f          1 FO7      -0.097000
     24 F2           4.2280     0.7530     1.7840 f          1 FO7      -0.097000
     25 H1           4.0430    -0.7850    -0.1970 h1         1 FO7       0.048200
     26 H2           3.0630    -2.1540     0.2500 h1         1 FO7       0.048200
     27 H3           3.7430    -2.5450    -1.8370 ho         1 FO7       0.454000
     28 H4          -3.2530    -0.1880    -1.9430 ha         1 FO7       0.155000
     29 H5          -2.6840    -0.4620     2.3110 ha         1 FO7       0.155000
     30 H6          -6.2520     1.3390     0.7460 ha         1 FO7       0.154000
     31 H7          -1.3630     1.6410     0.0810 ha         1 FO7       0.139000
     32 H8           0.7750     2.7560    -0.0700 ha         1 FO7       0.152000
     33 H11          4.9310     2.5940     1.3750 h3         1 FO7       0.097700
@<TRIPOS>BOND
     1     1     2 1   
     2     2     3 ar  
     3     2     6 ar  
     4     3     4 1   
     5     3    18 ar  
     6     4     5 1   
     7     4    25 1   
     8     4    26 1   
     9     5    27 1   
    10     6     7 1   
    11     6    16 ar  
    12     7     8 1   
    13     8     9 ar  
    14     8    12 ar  
    15     9    10 ar  
    16     9    28 1   
    17    10    11 1   
    18    10    15 ar  
    19    12    13 ar  
    20    12    29 1   
    21    13    14 1   
    22    13    15 ar  
    23    15    30 1   
    24    16    17 ar  
    25    16    31 1   
    26    17    18 ar  
    27    17    32 1   
    28    18    19 1   
    29    19    20 2   
    30    19    21 2   
    31    19    22 1   
    32    22    23 1   
    33    22    24 1   
    34    22    33 1   
@<TRIPOS>SUBSTRUCTURE
     1 FO7         1 TEMP              0 ****  ****    0 ROOT
