@<TRIPOS>MOLECULE
FO8
   73    78     1     0     0
SMALL
abcg2


@<TRIPOS>ATOM
      1 C15          0.2530    -2.0080    -0.6780 c6         1 FO8       0.169800
      2 C17          4.8490    -0.7980    -1.9020 ca         1 FO8      -0.105500
      3 O          -11.7960     0.5520    -0.5790 o          1 FO8      -0.520000
      4 C          -10.6960     0.0780    -0.3810 c          1 FO8       0.572600
      5 C3          -9.4880     0.8560    -0.0880 ca         1 FO8      -0.167600
      6 C4          -9.5230     2.2490    -0.0850 ca         1 FO8      -0.101000
      7 C5          -8.3500     2.9210     0.1640 ca         1 FO8       0.338900
      8 N2          -7.2070     2.2960     0.4530 nb         1 FO8      -0.675000
      9 C6          -7.1700     0.9880     0.4700 ca         1 FO8       0.479500
     10 C2          -8.2890     0.1780     0.1610 ca         1 FO8       0.149400
     11 N1          -8.1740    -1.1830     0.0720 nc         1 FO8      -0.578100
     12 C1          -9.2410    -1.8340    -0.2090 cd         1 FO8       0.500800
     13 N          -10.4610    -1.2740    -0.4100 ns         1 FO8      -0.426400
     14 N3          -5.9270     0.4230     0.7900 na         1 FO8       0.110300
     15 N6          -5.8220    -0.6330     1.6040 nc         1 FO8      -0.480800
     16 C28         -4.5310    -0.8140     1.7580 cd         1 FO8       0.245900
     17 C8          -3.7680     0.1410     1.0440 cd         1 FO8      -0.202300
     18 C7          -4.7140     0.9270     0.4420 cc         1 FO8      -0.130000
     19 C9          -2.2820     0.2350     0.9500 c3         1 FO8       0.005900
     20 C10         -1.7100    -0.7680    -0.0530 c3         1 FO8       0.171800
     21 N4          -0.2610    -0.8090    -0.0400 n3         1 FO8      -0.726600
     22 C14          1.7580    -2.1230    -0.4930 c6         1 FO8      -0.069900
     23 C13          2.4770    -0.8920    -1.0460 c6         1 FO8      -0.016400
     24 C12          1.8520     0.3680    -0.4430 c6         1 FO8      -0.069900
     25 C11          0.3420     0.3760    -0.6240 c6         1 FO8       0.169800
     26 C16          3.9680    -0.9370    -0.8340 ca         1 FO8      -0.072300
     27 C27          4.5140    -1.1020     0.4390 ca         1 FO8      -0.105500
     28 C26          5.8860    -1.1280     0.6320 ca         1 FO8      -0.107000
     29 C19          6.7680    -0.9900    -0.4390 ca         1 FO8      -0.084300
     30 C18          6.2250    -0.8220    -1.7090 ca         1 FO8      -0.107000
     31 H1          -0.2350    -2.8790    -0.2340 h1         1 FO8       0.029700
     32 H2           0.0150    -2.0290    -1.7570 h1         1 FO8       0.029700
     33 H3           4.4560    -0.6670    -2.9040 ha         1 FO8       0.112500
     34 H5          -8.3150     4.0030     0.1510 h4         1 FO8       0.033100
     35 H6          -9.2090    -2.9120    -0.3030 h5         1 FO8       0.055800
     36 H7         -11.2410    -1.8860    -0.6140 hn         1 FO8       0.336500
     37 H8          -4.1660    -1.6150     2.3850 h4         1 FO8       0.040100
     38 H9          -4.6180     1.7830    -0.2050 h4         1 FO8       0.164000
     39 H10         -2.0010     1.2540     0.6800 hc         1 FO8       0.052700
     40 H11         -1.8380     0.0340     1.9290 hc         1 FO8       0.052700
     41 H12         -2.0760    -1.7640     0.2140 h1         1 FO8       0.032200
     42 H13         -2.1130    -0.5500    -1.0570 h1         1 FO8       0.032200
     43 H15          1.9740    -2.2370     0.5740 hc         1 FO8       0.049450
     44 H16          2.1190    -3.0260    -0.9900 hc         1 FO8       0.049450
     45 H17          2.2940    -0.8620    -2.1280 hc         1 FO8       0.046700
     46 H18          2.0850     0.4250     0.6250 hc         1 FO8       0.049450
     47 H19          2.2790     1.2600    -0.9090 hc         1 FO8       0.049450
     48 H20          0.1020     0.4570    -1.7000 h1         1 FO8       0.029700
     49 H21         -0.0670     1.2680    -0.1480 h1         1 FO8       0.029700
     50 H22          3.8630    -1.2120     1.2990 ha         1 FO8       0.112500
     51 H23          6.2800    -1.2630     1.6330 ha         1 FO8       0.111000
     52 H25          6.8850    -0.7130    -2.5620 ha         1 FO8       0.111000
     53 C20          8.2530    -0.9650    -0.2140 c3         1 FO8      -0.032100
     54 C21          8.7300     0.4570     0.0860 c3         1 FO8       0.169800
     55 N5          10.1290     0.5250     0.4590 n3         1 FO8      -0.718600
     56 C23         12.4680     0.2620    -0.1570 c6         1 FO8       0.153100
     57 C24         11.0290     0.2080    -0.6350 c6         1 FO8       0.126800
     58 C29         10.4680     1.8300     0.9990 c6         1 FO8       0.126800
     59 C30         11.9170     1.8470     1.4480 c6         1 FO8       0.153100
     60 O1          12.7910     1.5220     0.3890 os         1 FO8      -0.451000
     61 H14          8.5180    -1.6080     0.6290 hc         1 FO8       0.053200
     62 H24          8.7630    -1.3640    -1.0940 hc         1 FO8       0.053200
     63 H26          8.5030     1.1060    -0.7780 h1         1 FO8       0.035200
     64 H27          8.1440     0.8430     0.9240 h1         1 FO8       0.035200
     65 H28         12.6320    -0.5310     0.5860 h1         1 FO8       0.050200
     66 H29         13.1470     0.0850    -0.9920 h1         1 FO8       0.050200
     67 H30         10.8310    -0.7980    -1.0080 h1         1 FO8       0.040450
     68 H31         10.8960     0.9030    -1.4830 h1         1 FO8       0.040450
     69 H32         10.3030     2.6330     0.2600 h1         1 FO8       0.040450
     70 H33          9.8290     2.0470     1.8580 h1         1 FO8       0.040450
     71 H34         12.1890     2.8430     1.8020 h1         1 FO8       0.050200
     72 H35         12.0450     1.1430     2.2810 h1         1 FO8       0.050200
     73 H4         -10.4400     2.7860    -0.2860 ha         1 FO8       0.151000
@<TRIPOS>BOND
     1     1    21 1   
     2     1    22 1   
     3     1    31 1   
     4     1    32 1   
     5     2    26 ar  
     6     2    30 ar  
     7     2    33 1   
     8     3     4 2   
     9     4     5 1   
    10     4    13 1   
    11     5     6 ar  
    12     5    10 ar  
    13     6     7 ar  
    14     6    73 1   
    15     7     8 ar  
    16     7    34 1   
    17     8     9 ar  
    18     9    10 ar  
    19     9    14 1   
    20    10    11 1   
    21    11    12 2   
    22    12    13 1   
    23    12    35 1   
    24    13    36 1   
    25    14    15 1   
    26    14    18 1   
    27    15    16 2   
    28    16    17 1   
    29    16    37 1   
    30    17    18 2   
    31    17    19 1   
    32    18    38 1   
    33    19    20 1   
    34    19    39 1   
    35    19    40 1   
    36    20    21 1   
    37    20    41 1   
    38    20    42 1   
    39    21    25 1   
    40    22    23 1   
    41    22    43 1   
    42    22    44 1   
    43    23    24 1   
    44    23    26 1   
    45    23    45 1   
    46    24    25 1   
    47    24    46 1   
    48    24    47 1   
    49    25    48 1   
    50    25    49 1   
    51    26    27 ar  
    52    27    28 ar  
    53    27    50 1   
    54    28    29 ar  
    55    28    51 1   
    56    29    30 ar  
    57    29    53 1   
    58    30    52 1   
    59    53    54 1   
    60    53    61 1   
    61    53    62 1   
    62    54    55 1   
    63    54    63 1   
    64    54    64 1   
    65    55    57 1   
    66    55    58 1   
    67    56    57 1   
    68    56    60 1   
    69    56    65 1   
    70    56    66 1   
    71    57    67 1   
    72    57    68 1   
    73    58    59 1   
    74    58    69 1   
    75    58    70 1   
    76    59    60 1   
    77    59    71 1   
    78    59    72 1   
@<TRIPOS>SUBSTRUCTURE
     1 FO8         1 TEMP              0 ****  ****    0 ROOT
