@<TRIPOS>MOLECULE
FO8
   73    78     1     0     0
SMALL
No Charge or Current Charge


@<TRIPOS>ATOM
      1 C15          0.0920    -2.0320     0.3190 c6         1 FO8       0.169800
      2 C17          4.6130    -1.1070    -1.4010 ca         1 FO8      -0.105500
      3 O          -10.8450     0.5410    -2.6070 o          1 FO8      -0.520000
      4 C           -9.7570     0.2470    -2.1370 c          1 FO8       0.572600
      5 C3          -9.2500     0.7450    -0.8340 ca         1 FO8      -0.167600
      6 C4         -10.0230     1.6140    -0.0390 ca         1 FO8      -0.101000
      7 C5          -9.5120     2.0620     1.1820 ca         1 FO8       0.338900
      8 N2          -8.2980     1.6980     1.6410 nb         1 FO8      -0.675000
      9 C6          -7.5270     0.8510     0.8920 ca         1 FO8       0.479500
     10 C2          -7.9710     0.3410    -0.3810 ca         1 FO8       0.149400
     11 N1          -7.1410    -0.5350    -1.1370 nc         1 FO8      -0.578100
     12 C1          -7.6720    -0.9350    -2.2950 cd         1 FO8       0.500800
     13 N           -8.8980    -0.5750    -2.7750 ns         1 FO8      -0.426400
     14 N3          -6.2500     0.4530     1.3350 na         1 FO8       0.110300
     15 N6          -6.1050    -0.4620     2.3610 nc         1 FO8      -0.480800
     16 C28         -4.7900    -0.5180     2.4680 cd         1 FO8       0.245900
     17 C8          -4.1110     0.3360     1.5560 cd         1 FO8      -0.202300
     18 C7          -5.0710     0.9780     0.8210 cc         1 FO8      -0.130000
     19 C9          -2.6160     0.4930     1.4400 c3         1 FO8       0.005900
     20 C10         -1.9480    -0.7280     0.7640 c3         1 FO8       0.171800
     21 N4          -0.4610    -0.7230     0.7690 n3         1 FO8      -0.726600
     22 C14          1.6340    -2.0800     0.4410 c6         1 FO8      -0.069900
     23 C13          2.2910    -0.9260    -0.3570 c6         1 FO8      -0.016400
     24 C12          1.6810     0.4220     0.1010 c6         1 FO8      -0.069900
     25 C11          0.1370     0.4050    -0.0070 c6         1 FO8       0.169800
     26 C16          3.8240    -0.9390    -0.2460 ca         1 FO8      -0.072300
     27 C27          4.4630    -0.7840     1.0020 ca         1 FO8      -0.105500
     28 C26          5.8650    -0.7970     1.0910 ca         1 FO8      -0.107000
     29 C19          6.6500    -0.9670    -0.0640 ca         1 FO8      -0.084300
     30 C18          6.0160    -1.1200    -1.3110 ca         1 FO8      -0.107000
     31 H1          -0.3300    -2.8490     0.9210 h1         1 FO8       0.029700
     32 H2          -0.1910    -2.2230    -0.7270 h1         1 FO8       0.029700
     33 H3           4.1420    -1.2270    -2.3740 ha         1 FO8       0.112500
     34 H5         -10.0900     2.7350     1.8130 h4         1 FO8       0.033100
     35 H6          -7.1430    -1.6030    -2.9640 h5         1 FO8       0.055800
     36 H7          -9.2100    -0.9330    -3.6660 hn         1 FO8       0.336500
     37 H8          -4.3510    -1.1750     3.2080 h4         1 FO8       0.040100
     38 H9          -5.0260     1.7100     0.0230 h4         1 FO8       0.164000
     39 H10         -2.3890     1.4020     0.8700 hc         1 FO8       0.052700
     40 H11         -2.1810     0.6290     2.4370 hc         1 FO8       0.052700
     41 H12         -2.3000    -1.6240     1.2920 h1         1 FO8       0.032200
     42 H13         -2.3190    -0.8020    -0.2680 h1         1 FO8       0.032200
     43 H15          1.9130    -2.0200     1.5020 hc         1 FO8       0.049450
     44 H16          2.0030    -3.0470     0.0740 hc         1 FO8       0.049450
     45 H17          2.0210    -1.0650    -1.4140 hc         1 FO8       0.046700
     46 H18          1.9660     0.6380     1.1390 hc         1 FO8       0.049450
     47 H19          2.0830     1.2420    -0.5100 hc         1 FO8       0.049450
     48 H20         -0.1490     0.3300    -1.0670 h1         1 FO8       0.029700
     49 H21         -0.2350     1.3720     0.3600 h1         1 FO8       0.029700
     50 H22          3.8750    -0.6520     1.9060 ha         1 FO8       0.112500
     51 H23          6.3410    -0.6740     2.0610 ha         1 FO8       0.111000
     52 H25          6.6100    -1.2490    -2.2130 ha         1 FO8       0.111000
     53 C20          8.1710    -0.9750     0.0300 c3         1 FO8      -0.032100
     54 C21          8.7750     0.4160    -0.2700 c3         1 FO8       0.169800
     55 N5          10.2400     0.5260    -0.0520 n3         1 FO8      -0.718600
     56 C23         12.5880    -0.1970    -0.6790 c6         1 FO8       0.153100
     57 C24         11.0600    -0.3610    -0.9420 c6         1 FO8       0.126800
     58 C29         10.7200     1.9410    -0.1430 c6         1 FO8       0.126800
     59 C30         12.2540     2.0540     0.1080 c6         1 FO8       0.153100
     60 O1          12.9760     1.1920    -0.8030 os         1 FO8      -0.451000
     61 H14          8.4870    -1.2920     1.0310 hc         1 FO8       0.053200
     62 H24          8.5760    -1.7130    -0.6720 hc         1 FO8       0.053200
     63 H26          8.5290     0.6880    -1.3060 h1         1 FO8       0.035200
     64 H27          8.2620     1.1400     0.3780 h1         1 FO8       0.035200
     65 H28         12.8350    -0.5540     0.3320 h1         1 FO8       0.050200
     66 H29         13.1580    -0.7970    -1.4020 h1         1 FO8       0.050200
     67 H30         10.8010    -1.4180    -0.7850 h1         1 FO8       0.040450
     68 H31         10.8580    -0.1320    -1.9990 h1         1 FO8       0.040450
     69 H32         10.4960     2.3550    -1.1380 h1         1 FO8       0.040450
     70 H33         10.1970     2.5690     0.5920 h1         1 FO8       0.040450
     71 H34         12.5820     3.0920    -0.0420 h1         1 FO8       0.050200
     72 H35         12.4870     1.7670     1.1430 h1         1 FO8       0.050200
     73 H4         -11.0100     1.9430    -0.3570 ha         1 FO8       0.151000
@<TRIPOS>BOND
     1     1    21 1   
     2     1    22 1   
     3     1    31 1   
     4     1    32 1   
     5     2    26 ar  
     6     2    30 ar  
     7     2    33 1   
     8     3     4 2   
     9     4     5 1   
    10     4    13 1   
    11     5     6 ar  
    12     5    10 ar  
    13     6     7 ar  
    14     6    73 1   
    15     7     8 ar  
    16     7    34 1   
    17     8     9 ar  
    18     9    10 ar  
    19     9    14 1   
    20    10    11 1   
    21    11    12 2   
    22    12    13 1   
    23    12    35 1   
    24    13    36 1   
    25    14    15 1   
    26    14    18 1   
    27    15    16 2   
    28    16    17 1   
    29    16    37 1   
    30    17    18 2   
    31    17    19 1   
    32    18    38 1   
    33    19    20 1   
    34    19    39 1   
    35    19    40 1   
    36    20    21 1   
    37    20    41 1   
    38    20    42 1   
    39    21    25 1   
    40    22    23 1   
    41    22    43 1   
    42    22    44 1   
    43    23    24 1   
    44    23    26 1   
    45    23    45 1   
    46    24    25 1   
    47    24    46 1   
    48    24    47 1   
    49    25    48 1   
    50    25    49 1   
    51    26    27 ar  
    52    27    28 ar  
    53    27    50 1   
    54    28    29 ar  
    55    28    51 1   
    56    29    30 ar  
    57    29    53 1   
    58    30    52 1   
    59    53    54 1   
    60    53    61 1   
    61    53    62 1   
    62    54    55 1   
    63    54    63 1   
    64    54    64 1   
    65    55    57 1   
    66    55    58 1   
    67    56    57 1   
    68    56    60 1   
    69    56    65 1   
    70    56    66 1   
    71    57    67 1   
    72    57    68 1   
    73    58    59 1   
    74    58    69 1   
    75    58    70 1   
    76    59    60 1   
    77    59    71 1   
    78    59    72 1   
@<TRIPOS>SUBSTRUCTURE
     1 FO8         1 TEMP              0 ****  ****    0 ROOT
