@<TRIPOS>MOLECULE
FO9
   37    37     1     0     0
SMALL
abcg2


@<TRIPOS>ATOM
      1 C1           2.2260     1.1910    -0.1820 c3         1 FO9      -0.122700
      2 C2           1.3700    -0.0580    -0.0420 c3         1 FO9       0.060600
      3 N2          -4.1240     2.5590    -0.0500 nv         1 FO9      -1.026700
      4 O1           6.6320     0.2910    -0.7330 o          1 FO9      -0.573500
      5 S2           5.6160    -0.7560    -0.6230 sy         1 FO9       1.280700
      6 O            5.6770    -1.8260    -1.6050 o          1 FO9      -0.573500
      7 N6           5.7370    -1.3300     0.9280 n8         1 FO9      -1.026100
      8 N5           4.0880    -0.2140    -0.6720 ne         1 FO9      -0.857300
      9 C            3.6970     0.8850    -0.0860 c2         1 FO9       0.797200
     10 N            4.4390     1.7710     0.5550 nv         1 FO9      -1.054200
     11 S           -0.3840     0.4020    -0.1370 ss         1 FO9      -0.402000
     12 C3          -1.0770    -1.2730    -0.0950 c3         1 FO9       0.076300
     13 C4          -2.5650    -1.2180    -0.0970 c2         1 FO9       0.252300
     14 N4          -3.2460    -0.1340    -0.1920 ne         1 FO9      -0.514300
     15 C6          -4.5840    -0.2510    -0.4040 ce         1 FO9      -0.102800
     16 S1          -5.0550    -1.9220    -0.0510 s4         1 FO9      -0.033300
     17 C5          -3.3660    -2.4830    -0.3330 c5         1 FO9       0.087600
     18 N1          -5.5660     0.6770    -0.1210 ne         1 FO9      -0.702300
     19 C7          -5.3370     1.9180     0.0770 c2         1 FO9       0.778100
     20 N3          -6.3830     2.7590     0.4410 nv         1 FO9      -1.026700
     21 H1           2.0570     1.6660    -1.1530 hc         1 FO9       0.073700
     22 H2           1.9500     1.9260     0.5770 hc         1 FO9       0.073700
     23 H3           1.5920    -0.7690    -0.8360 h1         1 FO9       0.074700
     24 H4           1.5720    -0.5410     0.9160 h1         1 FO9       0.074700
     25 H5          -3.3220     1.9440    -0.0390 hn         1 FO9       0.459500
     26 H6           5.1570    -2.1470     1.0790 hn         1 FO9       0.467000
     27 H7           6.7020    -1.5510     1.1540 hn         1 FO9       0.467000
     28 H9           4.0140     2.5910     0.9540 hn         1 FO9       0.513500
     29 H10         -0.7120    -1.8390    -0.9600 h1         1 FO9       0.059200
     30 H11         -0.6990    -1.7880     0.7950 h1         1 FO9       0.059200
     31 H13         -3.3040    -2.7990    -1.3820 h1         1 FO9       0.095700
     32 H15         -6.3540     3.6670    -0.0010 hn         1 FO9       0.459500
     33 H16         -7.2850     2.3300     0.3010 hn         1 FO9       0.459500
     34 H17         -4.0040     3.3790     0.5230 hn         1 FO9       0.459500
     35 H8           5.4450     1.7240     0.5750 hn         1 FO9       0.513500
     36 H12         -5.0030    -2.0760     1.3260 hs         1 FO9       0.275000
     37 H18         -3.1430    -3.3310     0.3090 h1         1 FO9       0.095700
@<TRIPOS>BOND
     1     1     2 1   
     2     1     9 1   
     3     1    21 1   
     4     1    22 1   
     5     2    11 1   
     6     2    23 1   
     7     2    24 1   
     8     3    19 1   
     9     3    25 1   
    10     3    34 1   
    11     4     5 2   
    12     5     6 2   
    13     5     7 1   
    14     5     8 1   
    15     7    26 1   
    16     7    27 1   
    17     8     9 2   
    18     9    10 1   
    19    10    28 1   
    20    10    35 1   
    21    11    12 1   
    22    12    13 1   
    23    12    29 1   
    24    12    30 1   
    25    13    14 2   
    26    13    17 1   
    27    14    15 1   
    28    15    16 2   
    29    15    18 1   
    30    16    17 1   
    31    16    36 1   
    32    17    31 1   
    33    17    37 1   
    34    18    19 2   
    35    19    20 1   
    36    20    32 1   
    37    20    33 1   
@<TRIPOS>SUBSTRUCTURE
     1 FO9         1 TEMP              0 ****  ****    0 ROOT
