@<TRIPOS>MOLECULE
FO9
   37    37     1     0     0
SMALL
No Charge or Current Charge


@<TRIPOS>ATOM
      1 C1           2.6150     0.4340    -1.1330 c3         1 FO9      -0.122700
      2 C2           1.5340     0.0100    -0.1210 c3         1 FO9       0.060600
      3 N2          -4.9950     2.4400     0.5590 nv         1 FO9      -1.026700
      4 O1           6.7070     0.5140     0.7450 o          1 FO9      -0.573500
      5 S2           6.2800    -0.6570    -0.0150 sy         1 FO9       1.280700
      6 O            7.1190    -1.3140    -1.0070 o          1 FO9      -0.573500
      7 N6           5.9210    -1.7840     1.0540 n8         1 FO9      -1.026100
      8 N5           4.7560    -0.5460    -0.5580 ne         1 FO9      -0.857300
      9 C            3.9910     0.4810    -0.5210 c2         1 FO9       0.797200
     10 N            4.2780     1.6030     0.1830 nv         1 FO9      -1.054200
     11 S           -0.1250    -0.0330    -0.9380 ss         1 FO9      -0.402000
     12 C3          -1.1760    -0.5680     0.4970 c3         1 FO9       0.076300
     13 C4          -2.6320    -0.6820     0.0810 c2         1 FO9       0.252300
     14 N4          -3.5760    -0.0630     0.7360 ne         1 FO9      -0.514300
     15 C6          -4.8380    -0.3160     0.2160 ce         1 FO9      -0.102800
     16 S1          -4.9120    -1.6710    -0.9100 s4         1 FO9      -0.033300
     17 C5          -3.0600    -1.5280    -1.1130 c5         1 FO9       0.087600
     18 N1          -5.9830     0.4300     0.5370 ne         1 FO9      -0.702300
     19 C7          -5.9300     1.6290     0.9750 c2         1 FO9       0.778100
     20 N3          -7.0240     2.3190     0.8910 nv         1 FO9      -1.026700
     21 H1           2.6140    -0.2710    -1.9710 hc         1 FO9       0.073700
     22 H2           2.3540     1.4110    -1.5540 hc         1 FO9       0.073700
     23 H3           1.7670    -0.9870     0.2770 h1         1 FO9       0.074700
     24 H4           1.5060     0.7190     0.7170 h1         1 FO9       0.074700
     25 H5          -4.2510     1.8110     0.2760 hn         1 FO9       0.459500
     26 H6           4.9770    -1.9390     0.7120 hn         1 FO9       0.467000
     27 H7           6.4530    -2.5480     0.6510 hn         1 FO9       0.467000
     28 H9           4.0150     2.4580    -0.2920 hn         1 FO9       0.513500
     29 H10         -0.8190    -1.5390     0.8620 h1         1 FO9       0.059200
     30 H11         -1.0700     0.1640     1.3090 h1         1 FO9       0.059200
     31 H13         -2.8580    -1.0220    -2.0650 h1         1 FO9       0.095700
     32 H15         -6.8150     3.1240     0.3230 hn         1 FO9       0.459500
     33 H16         -7.7420     1.7330     0.4930 hn         1 FO9       0.459500
     34 H17         -4.6970     3.0580     1.2990 hn         1 FO9       0.459500
     35 H8           5.2270     1.5960     0.5460 hn         1 FO9       0.513500
     36 H12         -4.5410    -2.5610     0.1010 hs         1 FO9       0.275000
     37 H18         -2.6150    -2.5300    -1.1240 h1         1 FO9       0.095700
@<TRIPOS>BOND
     1     1     2 1   
     2     1     9 1   
     3     1    21 1   
     4     1    22 1   
     5     2    11 1   
     6     2    23 1   
     7     2    24 1   
     8     3    19 1   
     9     3    25 1   
    10     3    34 1   
    11     4     5 2   
    12     5     6 2   
    13     5     7 1   
    14     5     8 1   
    15     7    26 1   
    16     7    27 1   
    17     8     9 2   
    18     9    10 1   
    19    10    28 1   
    20    10    35 1   
    21    11    12 1   
    22    12    13 1   
    23    12    29 1   
    24    12    30 1   
    25    13    14 2   
    26    13    17 1   
    27    14    15 1   
    28    15    16 2   
    29    15    18 1   
    30    16    17 1   
    31    16    36 1   
    32    17    31 1   
    33    17    37 1   
    34    18    19 2   
    35    19    20 1   
    36    20    32 1   
    37    20    33 1   
@<TRIPOS>SUBSTRUCTURE
     1 FO9         1 TEMP              0 ****  ****    0 ROOT
