@<TRIPOS>MOLECULE
FOA
   11    11     1     0     0
SMALL
bcc


@<TRIPOS>ATOM
      1 C1           1.3570    -0.0010    -0.0080 c          1 FOA       0.840100
      2 C2          -0.1380    -0.1270    -0.0020 cc         1 FOA       0.220200
      3 C3          -0.9570    -1.2120    -0.0320 cd         1 FOA      -0.304300
      4 C4          -2.2930    -0.7170    -0.0070 cd         1 FOA      -0.298300
      5 C5          -2.1830     0.6330     0.0350 cc         1 FOA       0.168600
      6 O6           1.9730    -1.0810    -0.0570 o          1 FOA      -0.808800
      7 O7           1.8230     1.1510     0.0320 o          1 FOA      -0.808800
      8 O8          -0.8900     0.9990     0.0380 os         1 FOA      -0.302800
      9 H3          -0.6450    -2.2440    -0.0660 ha         1 FOA       0.152000
     10 H4          -3.2090    -1.2860    -0.0210 ha         1 FOA       0.124000
     11 H5          -2.9130     1.4260     0.0630 h4         1 FOA       0.018100
@<TRIPOS>BOND
     1     1     2 1   
     2     1     6 1   
     3     1     7 1   
     4     2     3 2   
     5     2     8 1   
     6     3     4 1   
     7     3     9 1   
     8     4     5 2   
     9     4    10 1   
    10     5     8 1   
    11     5    11 1   
@<TRIPOS>SUBSTRUCTURE
     1 FOA         1 TEMP              0 ****  ****    0 ROOT
