@<TRIPOS>MOLECULE
FOA
   11    11     1     0     0
SMALL
No Charge or Current Charge


@<TRIPOS>ATOM
      1 C1           1.3620    -0.0370    -0.0100 c          1 FOA       0.629500
      2 C2          -0.1410    -0.0640    -0.0010 cc         1 FOA       0.110500
      3 C3          -0.9480    -1.1750    -0.0320 cd         1 FOA      -0.221000
      4 C4          -2.2810    -0.7180    -0.0080 cd         1 FOA      -0.215000
      5 C5          -2.2400     0.6490     0.0360 cc         1 FOA       0.058900
      6 O6           1.9760    -1.0960    -0.0490 o          1 FOA      -0.703500
      7 O7           1.9360     1.0450     0.0220 o          1 FOA      -0.703500
      8 O8          -0.9300     1.0720     0.0420 os         1 FOA      -0.214000
      9 H3          -0.6140    -2.2080    -0.0680 ha         1 FOA       0.134000
     10 H4          -3.1780    -1.3290    -0.0230 ha         1 FOA       0.106000
     11 H5          -3.0180     1.4010     0.0660 h4         1 FOA       0.018100
@<TRIPOS>BOND
     1     1     2 1   
     2     1     6 1   
     3     1     7 1   
     4     2     3 2   
     5     2     8 1   
     6     3     4 1   
     7     3     9 1   
     8     4     5 2   
     9     4    10 1   
    10     5     8 1   
    11     5    11 1   
@<TRIPOS>SUBSTRUCTURE
     1 FOA         1 TEMP              0 ****  ****    0 ROOT
