@<TRIPOS>MOLECULE
FOB
   31    31     1     0     0
SMALL
No Charge or Current Charge


@<TRIPOS>ATOM
      1 CH3          5.1740    -1.3890    -0.6790 c3         1 FOB      -0.170100
      2 O2           3.2920    -1.6740     1.4950 oh         1 FOB      -0.460100
      3 N1           3.0670    -0.6380     0.5130 n          1 FOB      -0.278300
      4 C1           3.9650    -0.4520    -0.5760 c          1 FOB       0.591100
      5 O1           3.7850     0.4260    -1.4100 o          1 FOB      -0.567100
      6 C2           1.8580     0.1940     0.7230 c3         1 FOB       0.092000
      7 C3           0.5640    -0.4820     0.2120 c3         1 FOB      -0.034400
      8 C4          -0.7540     0.2460     0.6030 c3         1 FOB      -0.320400
      9 PA1         -0.9270     1.9630    -0.0680 p5         1 FOB       1.268500
     10 OP1         -2.3290     2.4250     0.1450 o          1 FOB      -0.908833
     11 OP2          0.0110     2.8580     0.6680 o          1 FOB      -0.908833
     12 OP3         -0.6020     1.9610    -1.5230 o          1 FOB      -0.908833
     13 CG          -1.9750    -0.6110     0.2830 ca         1 FOB       0.088700
     14 CD1         -2.8780    -0.9860     1.2940 ca         1 FOB      -0.157000
     15 CD2         -2.2330    -1.0740    -1.0200 ca         1 FOB      -0.157000
     16 CE1         -3.9830    -1.7880     0.9680 ca         1 FOB       0.298400
     17 CE2         -3.3630    -1.8720    -1.2570 ca         1 FOB       0.298400
     18 NZ          -4.2320    -2.2310    -0.2850 nb         1 FOB      -0.753000
     19 H1           4.8260    -2.4280    -0.6790 hc         1 FOB       0.042367
     20 H2           5.8020    -1.1760    -1.5520 hc         1 FOB       0.042367
     21 H3           5.7520    -1.3350     0.2510 hc         1 FOB       0.042367
     22 H4           3.8450    -1.2550     2.1930 ho         1 FOB       0.419000
     23 H5           1.7560     0.3960     1.7970 h1         1 FOB       0.090700
     24 H6           1.9910     1.1610     0.2210 h1         1 FOB       0.090700
     25 H7           0.6270    -0.5880    -0.8780 hc         1 FOB       0.021200
     26 H8           0.5250    -1.5000     0.6210 hc         1 FOB       0.021200
     27 H9          -0.7200     0.4080     1.6860 hc         1 FOB       0.036700
     28 H12         -2.7310    -0.6640     2.3200 ha         1 FOB       0.119500
     29 H13         -1.5740    -0.8190    -1.8440 ha         1 FOB       0.119500
     30 H14         -4.6950    -2.0900     1.7350 h4         1 FOB      -0.030900
     31 H15         -3.5830    -2.2400    -2.2580 h4         1 FOB      -0.030900
@<TRIPOS>BOND
     1     1     4 1   
     2     1    19 1   
     3     1    20 1   
     4     1    21 1   
     5     2     3 1   
     6     2    22 1   
     7     3     4 1   
     8     3     6 1   
     9     4     5 2   
    10     6     7 1   
    11     6    23 1   
    12     6    24 1   
    13     7     8 1   
    14     7    25 1   
    15     7    26 1   
    16     8     9 1   
    17     8    13 1   
    18     8    27 1   
    19     9    10 1   
    20     9    11 1   
    21     9    12 1   
    22    13    14 ar  
    23    13    15 ar  
    24    14    16 ar  
    25    14    28 1   
    26    15    17 ar  
    27    15    29 1   
    28    16    18 ar  
    29    16    30 1   
    30    17    18 ar  
    31    17    31 1   
@<TRIPOS>SUBSTRUCTURE
     1 FOB         1 TEMP              0 ****  ****    0 ROOT
