@<TRIPOS>MOLECULE
FOB
   31    31     1     0     0
SMALL
abcg2


@<TRIPOS>ATOM
      1 CH3          5.0330    -1.3080    -0.7030 c3         1 FOB      -0.170100
      2 O2           3.1840    -1.7760     1.1760 oh         1 FOB      -0.460100
      3 N1           3.0790    -0.5640     0.5400 n          1 FOB      -0.278300
      4 C1           3.9090    -0.3230    -0.4990 c          1 FOB       0.591100
      5 O1           3.7580     0.6600    -1.2120 o          1 FOB      -0.567100
      6 C2           1.8630     0.1750     0.8120 c3         1 FOB       0.092000
      7 C3           0.6340    -0.4380     0.1490 c3         1 FOB      -0.034400
      8 C4          -0.6750     0.1730     0.6510 c3         1 FOB      -0.320400
      9 PA1         -0.9840     1.9230    -0.0250 p5         1 FOB       1.268500
     10 OP1         -2.3360     2.3240     0.5710 o          1 FOB      -0.908833
     11 OP2          0.1880     2.7610     0.5030 o          1 FOB      -0.908833
     12 OP3         -0.9930     1.7400    -1.5440 o          1 FOB      -0.908833
     13 CG          -1.8630    -0.6520     0.3210 ca         1 FOB       0.088700
     14 CD1         -2.9580    -0.7220     1.1840 ca         1 FOB      -0.157000
     15 CD2         -1.9890    -1.3550    -0.8780 ca         1 FOB      -0.157000
     16 CE1         -4.0640    -1.4780     0.8400 ca         1 FOB       0.298400
     17 CE2         -3.1400    -2.0830    -1.1320 ca         1 FOB       0.298400
     18 NZ          -4.1730    -2.1590    -0.2990 nb         1 FOB      -0.753000
     19 H1           4.6540    -2.2990    -0.9560 hc         1 FOB       0.042367
     20 H2           5.6640    -0.9590    -1.5160 hc         1 FOB       0.042367
     21 H3           5.6450    -1.4150     0.1930 hc         1 FOB       0.042367
     22 H4           3.6390    -1.6020     2.0110 ho         1 FOB       0.419000
     23 H5           1.7350     0.2030     1.8980 h1         1 FOB       0.090700
     24 H6           1.9980     1.2010     0.4850 h1         1 FOB       0.090700
     25 H7           0.7180    -0.3140    -0.9330 hc         1 FOB       0.021200
     26 H8           0.6370    -1.5160     0.3460 hc         1 FOB       0.021200
     27 H9          -0.6210     0.2620     1.7430 hc         1 FOB       0.036700
     28 H12         -2.9440    -0.1930     2.1280 ha         1 FOB       0.119500
     29 H13         -1.1970    -1.3470    -1.6140 ha         1 FOB       0.119500
     30 H14         -4.9080    -1.5370     1.5200 h4         1 FOB      -0.030900
     31 H15         -3.2310    -2.6350    -2.0630 h4         1 FOB      -0.030900
@<TRIPOS>BOND
     1     1     4 1   
     2     1    19 1   
     3     1    20 1   
     4     1    21 1   
     5     2     3 1   
     6     2    22 1   
     7     3     4 1   
     8     3     6 1   
     9     4     5 2   
    10     6     7 1   
    11     6    23 1   
    12     6    24 1   
    13     7     8 1   
    14     7    25 1   
    15     7    26 1   
    16     8     9 1   
    17     8    13 1   
    18     8    27 1   
    19     9    10 1   
    20     9    11 1   
    21     9    12 1   
    22    13    14 ar  
    23    13    15 ar  
    24    14    16 ar  
    25    14    28 1   
    26    15    17 ar  
    27    15    29 1   
    28    16    18 ar  
    29    16    30 1   
    30    17    18 ar  
    31    17    31 1   
@<TRIPOS>SUBSTRUCTURE
     1 FOB         1 TEMP              0 ****  ****    0 ROOT
