@<TRIPOS>MOLECULE
FOC
   25    24     1     0     0
SMALL
No Charge or Current Charge


@<TRIPOS>ATOM
      1 C1           0.6350     0.4010    -2.7420 c3         1 FOC       0.127600
      2 O1          -0.0430     0.1250    -3.9830 oh         1 FOC      -0.713000
      3 C2          -0.2300    -0.1010    -1.5550 c3         1 FOC       0.139300
      4 O2          -0.5780    -1.4780    -1.8110 oh         1 FOC      -0.707000
      5 C3           0.4890     0.0120    -0.1750 c3         1 FOC       0.111300
      6 O3           1.4890    -1.0230    -0.1310 oh         1 FOC      -0.711000
      7 C4          -0.4860    -0.1280     1.0410 c3         1 FOC       0.116300
      8 O4          -1.4770     0.9120     1.0030 oh         1 FOC      -0.705000
      9 C5           0.2270    -0.0060     2.4240 c3         1 FOC       0.138300
     10 O5           0.5500     1.3800     2.6600 oh         1 FOC      -0.721000
     11 C6          -0.6440    -0.5030     3.5970 c3         1 FOC      -0.126100
     12 H11          0.8060     1.4800    -2.6280 h1         1 FOC       0.030200
     13 H12          1.6150    -0.0960    -2.7240 h1         1 FOC       0.030200
     14 HO1          0.5020     0.5200    -4.7060 ho         1 FOC       0.505000
     15 H2          -1.1350     0.5250    -1.5300 h1         1 FOC       0.095700
     16 HO2         -0.7150    -1.5040    -2.7910 ho         1 FOC       0.500000
     17 H3           0.9630     1.0020    -0.1110 h1         1 FOC       0.084700
     18 HO3          1.0990    -1.7380    -0.6930 ho         1 FOC       0.500000
     19 H4          -0.9650    -1.1160     0.9770 h1         1 FOC       0.085700
     20 HO4         -1.0970     1.5800     1.6290 ho         1 FOC       0.498000
     21 H5           1.1400    -0.6190     2.4030 h1         1 FOC       0.080700
     22 HO5          1.1610     1.4100     3.4340 ho         1 FOC       0.499000
     23 H61         -0.0970    -0.4310     4.5440 hc         1 FOC       0.047033
     24 H62         -1.5660     0.0840     3.6870 hc         1 FOC       0.047033
     25 H63         -0.9220    -1.5540     3.4480 hc         1 FOC       0.047033
@<TRIPOS>BOND
     1     1     2 1   
     2     1     3 1   
     3     1    12 1   
     4     1    13 1   
     5     2    14 1   
     6     3     4 1   
     7     3     5 1   
     8     3    15 1   
     9     4    16 1   
    10     5     6 1   
    11     5     7 1   
    12     5    17 1   
    13     6    18 1   
    14     7     8 1   
    15     7     9 1   
    16     7    19 1   
    17     8    20 1   
    18     9    10 1   
    19     9    11 1   
    20     9    21 1   
    21    10    22 1   
    22    11    23 1   
    23    11    24 1   
    24    11    25 1   
@<TRIPOS>SUBSTRUCTURE
     1 FOC         1 TEMP              0 ****  ****    0 ROOT
