@<TRIPOS>MOLECULE
FOC
   25    24     1     0     0
SMALL
bcc


@<TRIPOS>ATOM
      1 C1           0.5680     0.4510    -2.6750 c3         1 FOC       0.104400
      2 O1          -0.2160     0.5620    -3.8400 oh         1 FOC      -0.590800
      3 C2          -0.3230     0.0430    -1.5140 c3         1 FOC       0.116100
      4 O2          -0.9550    -1.2020    -1.7340 oh         1 FOC      -0.584800
      5 C3           0.4680     0.0430    -0.2000 c3         1 FOC       0.088100
      6 O3           1.5290    -0.8890    -0.2350 oh         1 FOC      -0.588800
      7 C4          -0.4300    -0.1920     1.0260 c3         1 FOC       0.093100
      8 O4          -1.4990     0.7290     1.0550 oh         1 FOC      -0.582800
      9 C5           0.3610    -0.1770     2.3410 c3         1 FOC       0.115100
     10 O5           0.9870     1.0800     2.5420 oh         1 FOC      -0.598800
     11 C6          -0.5080    -0.5650     3.5260 c3         1 FOC      -0.126100
     12 H11          1.0520     1.4030    -2.4190 h1         1 FOC       0.030200
     13 H12          1.3700    -0.2880    -2.7990 h1         1 FOC       0.030200
     14 HO1          0.3750     0.7030    -4.5840 ho         1 FOC       0.406000
     15 H2          -1.1210     0.7860    -1.4260 h1         1 FOC       0.095700
     16 HO2         -0.3620    -1.7780    -2.2280 ho         1 FOC       0.401000
     17 H3           0.9390     1.0270    -0.0970 h1         1 FOC       0.084700
     18 HO3          1.1550    -1.7770    -0.2600 ho         1 FOC       0.401000
     19 H4          -0.8900    -1.1830     0.9320 h1         1 FOC       0.085700
     20 HO4         -1.1340     1.6200     1.0840 ho         1 FOC       0.399000
     21 H5           1.1670    -0.9090     2.2540 h1         1 FOC       0.080700
     22 HO5          0.3820     1.6530     3.0240 ho         1 FOC       0.400000
     23 H61          0.0780    -0.5830     4.4450 hc         1 FOC       0.047033
     24 H62         -1.3350     0.1350     3.6620 hc         1 FOC       0.047033
     25 H63         -0.9350    -1.5590     3.3870 hc         1 FOC       0.047033
@<TRIPOS>BOND
     1     1     2 1   
     2     1     3 1   
     3     1    12 1   
     4     1    13 1   
     5     2    14 1   
     6     3     4 1   
     7     3     5 1   
     8     3    15 1   
     9     4    16 1   
    10     5     6 1   
    11     5     7 1   
    12     5    17 1   
    13     6    18 1   
    14     7     8 1   
    15     7     9 1   
    16     7    19 1   
    17     8    20 1   
    18     9    10 1   
    19     9    11 1   
    20     9    21 1   
    21    10    22 1   
    22    11    23 1   
    23    11    24 1   
    24    11    25 1   
@<TRIPOS>SUBSTRUCTURE
     1 FOC         1 TEMP              0 ****  ****    0 ROOT
