@<TRIPOS>MOLECULE
FOD
   38    39     1     0     0
SMALL
bcc


@<TRIPOS>ATOM
      1 C5          -0.7100     1.0720    -0.2970 cc         1 FOD       0.301600
      2 C6           0.4570     0.4570    -0.6750 cd         1 FOD      -0.263600
      3 C7           2.7740     0.5350     0.3310 c6         1 FOD       0.061000
      4 C8           2.9620    -0.9280     0.7210 c6         1 FOD      -0.088400
      5 N2          -0.4410     1.8170     0.7970 nc         1 FOD      -0.357000
      6 C9           4.4440    -1.2560     0.8700 c6         1 FOD      -0.093400
      7 C10          5.2190    -0.9230    -0.3930 c6         1 FOD       0.144100
      8 C11          5.0060     0.5360    -0.7810 c6         1 FOD      -0.093400
      9 C12          3.5260     0.8600    -0.9530 c6         1 FOD      -0.088400
     10 N3           0.8080     1.6960     1.0980 nd         1 FOD      -0.226800
     11 N4           1.3640     0.8760     0.2270 na         1 FOD       0.096400
     12 N           -5.1740     1.1100    -0.8080 n8         1 FOD      -0.878800
     13 CA          -4.3950    -0.1070    -0.6780 c3         1 FOD       0.018500
     14 CB          -3.0010     0.0790    -0.0560 c3         1 FOD      -0.099400
     15 CG          -2.0690     0.9590    -0.8920 c3         1 FOD      -0.104700
     16 O2           6.5790    -1.2120    -0.1450 oh         1 FOD      -0.597800
     17 C           -5.1700    -1.1550     0.1590 c          1 FOD       0.941600
     18 H1           0.6870    -0.2150    -1.4840 h4         1 FOD       0.179000
     19 H12          3.1560     1.1700     1.1350 h1         1 FOD       0.085700
     20 H3           2.4370    -1.1370     1.6550 hc         1 FOD       0.058450
     21 H4           2.5170    -1.5710    -0.0460 hc         1 FOD       0.058450
     22 H5           4.8630    -0.6850     1.7060 hc         1 FOD       0.051700
     23 H6           4.5610    -2.3140     1.1170 hc         1 FOD       0.051700
     24 H7           4.8330    -1.5540    -1.2110 h1         1 FOD       0.031700
     25 H8           5.4350     1.1770    -0.0040 hc         1 FOD       0.051700
     26 H9           5.5370     0.7620    -1.7100 hc         1 FOD       0.051700
     27 H10          3.1140     0.2790    -1.7850 hc         1 FOD       0.058450
     28 H11          3.3980     1.9140    -1.2070 hc         1 FOD       0.058450
     29 H2          -4.6520     1.8240    -1.3000 hn         1 FOD       0.319300
     30 HA          -4.2510    -0.5170    -1.6860 h1         1 FOD       0.036700
     31 HB1         -3.1090     0.5070     0.9470 hc         1 FOD       0.052200
     32 HB2         -2.5360    -0.9040     0.0690 hc         1 FOD       0.052200
     33 HG1         -2.5000     1.9560    -1.0150 hc         1 FOD       0.040200
     34 HG2         -1.9800     0.5340    -1.8950 hc         1 FOD       0.040200
     35 H21          7.0890    -0.9390    -0.9150 ho         1 FOD       0.400000
     36 O           -6.0210    -0.7150     0.9540 o          1 FOD      -0.834800
     37 OXT         -4.8260    -2.3410    -0.0080 o          1 FOD      -0.834800
     38 H           -5.3760     1.4690     0.1160 hn         1 FOD       0.319300
@<TRIPOS>BOND
     1     1     2 2   
     2     1     5 1   
     3     1    15 1   
     4     2    11 1   
     5     2    18 1   
     6     3     4 1   
     7     3     9 1   
     8     3    11 1   
     9     3    19 1   
    10     4     6 1   
    11     4    20 1   
    12     4    21 1   
    13     5    10 2   
    14     6     7 1   
    15     6    22 1   
    16     6    23 1   
    17     7     8 1   
    18     7    16 1   
    19     7    24 1   
    20     8     9 1   
    21     8    25 1   
    22     8    26 1   
    23     9    27 1   
    24     9    28 1   
    25    10    11 1   
    26    12    13 1   
    27    12    29 1   
    28    12    38 1   
    29    13    14 1   
    30    13    17 1   
    31    13    30 1   
    32    14    15 1   
    33    14    31 1   
    34    14    32 1   
    35    15    33 1   
    36    15    34 1   
    37    16    35 1   
    38    17    36 1   
    39    17    37 1   
@<TRIPOS>SUBSTRUCTURE
     1 FOD         1 TEMP              0 ****  ****    0 ROOT
