@<TRIPOS>MOLECULE
FOD
   38    39     1     0     0
SMALL
No Charge or Current Charge


@<TRIPOS>ATOM
      1 C5          -0.7030     1.1340    -0.2610 cc         1 FOD       0.301600
      2 C6           0.4350     0.4590    -0.5680 cd         1 FOD      -0.263600
      3 C7           2.7930     0.6200     0.3970 c6         1 FOD       0.061000
      4 C8           2.9540    -0.8690     0.8090 c6         1 FOD      -0.088400
      5 N2          -0.4680     2.0380     0.7380 nc         1 FOD      -0.357000
      6 C9           4.4500    -1.2620     0.9100 c6         1 FOD      -0.093400
      7 C10          5.2010    -0.9740    -0.4150 c6         1 FOD       0.144100
      8 C11          5.0400     0.5120    -0.8260 c6         1 FOD      -0.093400
      9 C12          3.5450     0.9100    -0.9320 c6         1 FOD      -0.088400
     10 N3           0.7920     1.9590     1.0840 nd         1 FOD      -0.226800
     11 N4           1.3640     0.9960     0.2950 na         1 FOD       0.096400
     12 N           -5.1490     1.1240    -0.8890 n8         1 FOD      -0.878800
     13 CA          -4.4020    -0.1740    -0.6890 c3         1 FOD       0.018500
     14 CB          -3.0230     0.1060    -0.0310 c3         1 FOD      -0.099400
     15 CG          -2.0660     0.9790    -0.8820 c3         1 FOD      -0.104700
     16 O2           6.5850    -1.2920    -0.2660 oh         1 FOD      -0.597800
     17 C           -5.1710    -1.3450     0.0730 c          1 FOD       0.941600
     18 H1           0.6410    -0.3180    -1.2920 h4         1 FOD       0.179000
     19 H12          3.2440     1.2410     1.1850 h1         1 FOD       0.085700
     20 H3           2.4590    -1.0450     1.7740 hc         1 FOD       0.058450
     21 H4           2.4540    -1.5200     0.0780 hc         1 FOD       0.058450
     22 H5           4.9210    -0.7070     1.7340 hc         1 FOD       0.051700
     23 H6           4.5360    -2.3280     1.1630 hc         1 FOD       0.051700
     24 H7           4.7610    -1.6020    -1.2040 h1         1 FOD       0.031700
     25 H8           5.5410     1.1590    -0.0920 hc         1 FOD       0.051700
     26 H9           5.5360     0.6910    -1.7900 hc         1 FOD       0.051700
     27 H10          3.0780     0.3570    -1.7590 hc         1 FOD       0.058450
     28 H11          3.4620     1.9760    -1.1820 hc         1 FOD       0.058450
     29 H2          -4.5090     1.8220    -1.2790 hn         1 FOD       0.319300
     30 HA          -4.1960    -0.5640    -1.6950 h1         1 FOD       0.036700
     31 HB1         -3.1710     0.5740     0.9510 hc         1 FOD       0.052200
     32 HB2         -2.5300    -0.8560     0.1580 hc         1 FOD       0.052200
     33 HG1         -2.5050     1.9720    -1.0370 hc         1 FOD       0.040200
     34 HG2         -1.9580     0.5290    -1.8760 hc         1 FOD       0.040200
     35 H21          7.0030    -1.1520    -1.1410 ho         1 FOD       0.400000
     36 O           -5.5680    -1.1480     1.2200 o          1 FOD      -0.834800
     37 OXT         -5.4080    -2.3870    -0.5320 o          1 FOD      -0.834800
     38 H           -5.4150     1.4990     0.0280 hn         1 FOD       0.319300
@<TRIPOS>BOND
     1     1     2 2   
     2     1     5 1   
     3     1    15 1   
     4     2    11 1   
     5     2    18 1   
     6     3     4 1   
     7     3     9 1   
     8     3    11 1   
     9     3    19 1   
    10     4     6 1   
    11     4    20 1   
    12     4    21 1   
    13     5    10 2   
    14     6     7 1   
    15     6    22 1   
    16     6    23 1   
    17     7     8 1   
    18     7    16 1   
    19     7    24 1   
    20     8     9 1   
    21     8    25 1   
    22     8    26 1   
    23     9    27 1   
    24     9    28 1   
    25    10    11 1   
    26    12    13 1   
    27    12    29 1   
    28    12    38 1   
    29    13    14 1   
    30    13    17 1   
    31    13    30 1   
    32    14    15 1   
    33    14    31 1   
    34    14    32 1   
    35    15    33 1   
    36    15    34 1   
    37    16    35 1   
    38    17    36 1   
    39    17    37 1   
@<TRIPOS>SUBSTRUCTURE
     1 FOD         1 TEMP              0 ****  ****    0 ROOT
