@<TRIPOS>MOLECULE
FOE
   39    39     1     0     0
SMALL
No Charge or Current Charge


@<TRIPOS>ATOM
      1 N           18.3100    29.5470    22.0790 n8         1 FOE      -0.865800
      2 CA          17.0860    30.4110    21.8560 c3         1 FOE       0.011500
      3 C           16.8670    31.6170    22.8650 c          1 FOE       0.946600
      4 O           16.6350    31.3670    24.0460 o          1 FOE      -0.832300
      5 CB          15.8260    29.5160    21.7770 c3         1 FOE       0.010700
      6 SG          14.3800    30.4460    21.0950 ss         1 FOE      -0.319200
      7 C1          14.3200    29.7760    19.3580 c3         1 FOE      -0.076300
      8 C2          15.5850    30.0700    18.5210 c          1 FOE       0.693100
      9 O3          16.3840    29.1690    18.2910 o          1 FOE      -0.573100
     10 N4          15.8030    31.3890    18.0410 n          1 FOE      -0.408000
     11 C6          17.0550    31.6800    17.2820 c3         1 FOE       0.123700
     12 C7          18.2510    31.9660    18.2170 c3         1 FOE      -0.108600
     13 C8          14.2040    34.4060    19.6000 ca         1 FOE      -0.173000
     14 C9          15.1490    33.4080    19.2960 ca         1 FOE      -0.097000
     15 C10         14.8810    32.4610    18.2890 ca         1 FOE       0.045600
     16 C11         13.6310    32.4770    17.6380 ca         1 FOE      -0.097000
     17 C12         12.6860    33.4750    17.9420 ca         1 FOE      -0.173000
     18 C13         12.9790    34.4390    18.9170 ca         1 FOE       0.122900
     19 F14         12.0710    35.3940    19.2120 f          1 FOE      -0.154900
     20 OXT         17.0630    32.7610    22.4660 o          1 FOE      -0.832300
     21 H           18.2970    28.7560    21.4270 hn         1 FOE       0.314800
     22 H2          18.2560    29.1210    23.0110 hn         1 FOE       0.314800
     23 HA          17.2090    30.8720    20.8680 h1         1 FOE       0.063700
     24 HB2         16.0180    28.6460    21.1360 h1         1 FOE       0.048700
     25 HB3         15.5690    29.1480    22.7790 h1         1 FOE       0.048700
     26 H11A        14.1950    28.6880    19.4030 h1         1 FOE       0.074200
     27 H12A        13.4480    30.1880    18.8410 h1         1 FOE       0.074200
     28 H51         17.7950    32.9340    15.6500 hc         1 FOE       0.042533
     29 H52         16.0500    32.6330    15.5880 hc         1 FOE       0.042533
     30 H53         16.7140    33.7910    16.7650 hc         1 FOE       0.042533
     31 H6          17.3080    30.7890    16.6910 h1         1 FOE       0.072700
     32 H71         19.1680    32.1090    17.6330 hc         1 FOE       0.042533
     33 H72         18.0840    32.8710    18.8120 hc         1 FOE       0.042533
     34 H73         18.4190    31.1260    18.9000 hc         1 FOE       0.042533
     35 H11         13.4000    31.7260    16.8860 ha         1 FOE       0.155500
     36 H12         11.7280    33.4980    17.4270 ha         1 FOE       0.145000
     37 H8          14.4160    35.1430    20.3710 ha         1 FOE       0.145000
     38 C5          16.8910    32.8320    16.2620 c3         1 FOE      -0.108600
     39 H9          16.0830    33.3670    19.8490 ha         1 FOE       0.155500
@<TRIPOS>BOND
     1     1     2 1   
     2     1    21 1   
     3     1    22 1   
     4     2     3 1   
     5     2     5 1   
     6     2    23 1   
     7     3     4 1   
     8     3    20 1   
     9     5     6 1   
    10     5    24 1   
    11     5    25 1   
    12     6     7 1   
    13     7     8 1   
    14     7    26 1   
    15     7    27 1   
    16     8     9 2   
    17     8    10 1   
    18    10    11 1   
    19    10    15 1   
    20    11    12 1   
    21    11    31 1   
    22    11    38 1   
    23    12    32 1   
    24    12    33 1   
    25    12    34 1   
    26    13    14 ar  
    27    13    18 ar  
    28    13    37 1   
    29    14    15 ar  
    30    14    39 1   
    31    15    16 ar  
    32    16    17 ar  
    33    16    35 1   
    34    17    18 ar  
    35    17    36 1   
    36    18    19 1   
    37    28    38 1   
    38    29    38 1   
    39    30    38 1   
@<TRIPOS>SUBSTRUCTURE
     1 FOE         1 TEMP              0 ****  ****    0 ROOT
