@<TRIPOS>MOLECULE
FOE
   39    39     1     0     0
SMALL
bcc


@<TRIPOS>ATOM
      1 N           17.5370    28.2610    22.9930 n8         1 FOE      -0.865800
      2 CA          17.1200    29.3150    22.0730 c3         1 FOE       0.011500
      3 C           17.9480    30.5860    22.3830 c          1 FOE       0.946600
      4 O           17.7820    31.0610    23.5260 o          1 FOE      -0.832300
      5 CB          15.6240    29.5980    22.1920 c3         1 FOE       0.010700
      6 SG          14.9900    30.9190    21.1190 ss         1 FOE      -0.319200
      7 C1          14.9390    30.0960    19.4910 c3         1 FOE      -0.076300
      8 C2          16.0850    30.5270    18.6000 c          1 FOE       0.693100
      9 O3          17.0640    29.8120    18.4470 o          1 FOE      -0.573100
     10 N4          15.9760    31.7380    17.9930 n          1 FOE      -0.408000
     11 C6          17.0980    32.2280    17.1720 c3         1 FOE       0.123700
     12 C7          18.1430    32.9370    18.0260 c3         1 FOE      -0.108600
     13 C8          13.8000    34.3930    19.4180 ca         1 FOE      -0.173000
     14 C9          14.8950    33.5680    19.2000 ca         1 FOE      -0.097000
     15 C10         14.8580    32.5860    18.2160 ca         1 FOE       0.045600
     16 C11         13.7150    32.4480    17.4340 ca         1 FOE      -0.097000
     17 C12         12.6100    33.2560    17.6450 ca         1 FOE      -0.173000
     18 C13         12.6730    34.2150    18.6400 ca         1 FOE       0.122900
     19 F14         11.6010    34.9900    18.8580 f          1 FOE      -0.154900
     20 OXT         18.7110    31.0150    21.4970 o          1 FOE      -0.832300
     21 H           16.9410    27.4490    22.8830 hn         1 FOE       0.314800
     22 H2          17.3960    28.5900    23.9410 hn         1 FOE       0.314800
     23 HA          17.3360    28.9800    21.0560 h1         1 FOE       0.063700
     24 HB2         15.0400    28.6920    22.0090 h1         1 FOE       0.048700
     25 HB3         15.3970    29.9330    23.2060 h1         1 FOE       0.048700
     26 H11A        15.0100    29.0210    19.6500 h1         1 FOE       0.074200
     27 H12A        13.9660    30.3020    19.0470 h1         1 FOE       0.074200
     28 H51         17.4690    33.3480    15.3910 hc         1 FOE       0.042533
     29 H52         15.8700    32.6100    15.4160 hc         1 FOE       0.042533
     30 H53         16.1980    34.0550    16.3810 hc         1 FOE       0.042533
     31 H6          17.5560    31.3410    16.7350 h1         1 FOE       0.072700
     32 H71         19.0190    33.1750    17.4210 hc         1 FOE       0.042533
     33 H72         17.7580    33.8750    18.4300 hc         1 FOE       0.042533
     34 H73         18.4710    32.3140    18.8580 hc         1 FOE       0.042533
     35 H11         13.6840    31.6920    16.6600 ha         1 FOE       0.155500
     36 H12         11.7150    33.1420    17.0480 ha         1 FOE       0.145000
     37 H8          13.8240    35.1510    20.1890 ha         1 FOE       0.145000
     38 C5          16.6180    33.1110    16.0310 c3         1 FOE      -0.108600
     39 H9          15.7770    33.6810    19.8140 ha         1 FOE       0.155500
@<TRIPOS>BOND
     1     1     2 1   
     2     1    21 1   
     3     1    22 1   
     4     2     3 1   
     5     2     5 1   
     6     2    23 1   
     7     3     4 1   
     8     3    20 1   
     9     5     6 1   
    10     5    24 1   
    11     5    25 1   
    12     6     7 1   
    13     7     8 1   
    14     7    26 1   
    15     7    27 1   
    16     8     9 2   
    17     8    10 1   
    18    10    11 1   
    19    10    15 1   
    20    11    12 1   
    21    11    31 1   
    22    11    38 1   
    23    12    32 1   
    24    12    33 1   
    25    12    34 1   
    26    13    14 ar  
    27    13    18 ar  
    28    13    37 1   
    29    14    15 ar  
    30    14    39 1   
    31    15    16 ar  
    32    16    17 ar  
    33    16    35 1   
    34    17    18 ar  
    35    17    36 1   
    36    18    19 1   
    37    28    38 1   
    38    29    38 1   
    39    30    38 1   
@<TRIPOS>SUBSTRUCTURE
     1 FOE         1 TEMP              0 ****  ****    0 ROOT
