@<TRIPOS>MOLECULE
FOF
   42    41     1     0     0
SMALL
abcg2


@<TRIPOS>ATOM
      1 C1          -4.6810     1.9050    -0.8630 c3         1 FOF      -0.055900
      2 C2          -5.2350     0.5700    -0.4610 c2         1 FOF      -0.112400
      3 C3          -6.7140     0.5670    -0.2050 c3         1 FOF      -0.055900
      4 C4          -4.5110    -0.5450    -0.3250 c2         1 FOF      -0.224200
      5 C5          -3.0360    -0.7150    -0.5060 c3         1 FOF      -0.035200
      6 C6          -2.3360    -0.9870     0.8350 c3         1 FOF      -0.038200
      7 C7          -0.8500    -1.2000     0.7060 c2         1 FOF      -0.110400
      8 C8          -0.4330    -2.4470    -0.0170 c3         1 FOF      -0.055900
      9 C9          -0.0020    -0.3010     1.2120 c2         1 FOF      -0.224200
     10 C10          1.4940    -0.3040     1.1580 c3         1 FOF      -0.036200
     11 C11          2.0220     0.7650     0.1870 c3         1 FOF      -0.039200
     12 C12          3.5230     0.8960     0.2200 c2         1 FOF      -0.096400
     13 C13          4.0700     1.6190     1.4150 c3         1 FOF      -0.057900
     14 C14          4.2610     0.3870    -0.7700 c2         1 FOF      -0.225200
     15 C15          5.7470     0.4220    -0.9150 c3         1 FOF       0.200800
     16 O1           6.2250    -0.9120    -0.9750 oh         1 FOF      -0.657000
     17 H1          -5.2130     2.2940    -1.7350 hc         1 FOF       0.038367
     18 H2          -4.8280     2.6350    -0.0620 hc         1 FOF       0.038367
     19 H3          -3.6200     1.8850    -1.1010 hc         1 FOF       0.038367
     20 H4          -7.2680     0.8720    -1.0980 hc         1 FOF       0.038367
     21 H5          -7.0780    -0.4140     0.0990 hc         1 FOF       0.038367
     22 H6          -6.9770     1.2830     0.5790 hc         1 FOF       0.038367
     23 H7          -5.0360    -1.4460    -0.0130 ha         1 FOF       0.164000
     24 H8          -2.8600    -1.5540    -1.1870 hc         1 FOF       0.045700
     25 H9          -2.5820     0.1610    -0.9720 hc         1 FOF       0.045700
     26 H10         -2.5300    -0.1470     1.5050 hc         1 FOF       0.045200
     27 H11         -2.7940    -1.8700     1.2970 hc         1 FOF       0.045200
     28 H12         -0.7020    -2.3990    -1.0740 hc         1 FOF       0.039700
     29 H13          0.6370    -2.6350     0.0350 hc         1 FOF       0.039700
     30 H14         -0.9470    -3.3200     0.3940 hc         1 FOF       0.039700
     31 H15         -0.4330     0.5700     1.7020 ha         1 FOF       0.163000
     32 H16          1.8830    -0.1060     2.1620 hc         1 FOF       0.048200
     33 H17          1.8900    -1.2760     0.8600 hc         1 FOF       0.048200
     34 H18          1.6870     0.5130    -0.8210 hc         1 FOF       0.045700
     35 H19          1.5660     1.7290     0.4400 hc         1 FOF       0.045700
     36 H20          3.6340     1.2330     2.3380 hc         1 FOF       0.040367
     37 H21          5.1510     1.5520     1.5100 hc         1 FOF       0.040367
     38 H22          3.8060     2.6790     1.3700 hc         1 FOF       0.040367
     39 H23          3.7380    -0.1020    -1.5890 ha         1 FOF       0.176000
     40 H24          5.9970     0.9640    -1.8370 h1         1 FOF       0.021200
     41 H25          6.2150     0.9760    -0.0940 h1         1 FOF       0.021200
     42 H26          7.1430    -0.8810    -1.2580 ho         1 FOF       0.438000
@<TRIPOS>BOND
     1     1     2 1   
     2     1    17 1   
     3     1    18 1   
     4     1    19 1   
     5     2     3 1   
     6     2     4 2   
     7     3    20 1   
     8     3    21 1   
     9     3    22 1   
    10     4     5 1   
    11     4    23 1   
    12     5     6 1   
    13     5    24 1   
    14     5    25 1   
    15     6     7 1   
    16     6    26 1   
    17     6    27 1   
    18     7     8 1   
    19     7     9 2   
    20     8    28 1   
    21     8    29 1   
    22     8    30 1   
    23     9    10 1   
    24     9    31 1   
    25    10    11 1   
    26    10    32 1   
    27    10    33 1   
    28    11    12 1   
    29    11    34 1   
    30    11    35 1   
    31    12    13 1   
    32    12    14 2   
    33    13    36 1   
    34    13    37 1   
    35    13    38 1   
    36    14    15 1   
    37    14    39 1   
    38    15    16 1   
    39    15    40 1   
    40    15    41 1   
    41    16    42 1   
@<TRIPOS>SUBSTRUCTURE
     1 FOF         1 TEMP              0 ****  ****    0 ROOT
