@<TRIPOS>MOLECULE
FOF
   42    41     1     0     0
SMALL
No Charge or Current Charge


@<TRIPOS>ATOM
      1 C1          -4.7210     1.8600     0.0130 c3         1 FOF      -0.055900
      2 C2          -5.2490     0.4910    -0.3890 c2         1 FOF      -0.112400
      3 C3          -6.7660     0.4450    -0.4180 c3         1 FOF      -0.055900
      4 C4          -4.4900    -0.5810    -0.6880 c2         1 FOF      -0.224200
      5 C5          -2.9740    -0.6590    -0.7230 c3         1 FOF      -0.035200
      6 C6          -2.3760    -1.0160     0.6550 c3         1 FOF      -0.038200
      7 C7          -0.8540    -1.0080     0.6680 c2         1 FOF      -0.110400
      8 C8          -0.2450    -2.2650     0.0570 c3         1 FOF      -0.055900
      9 C9          -0.1530     0.0170     1.1880 c2         1 FOF      -0.224200
     10 C10          1.3560     0.1460     1.3010 c3         1 FOF      -0.036200
     11 C11          1.9860     0.7450     0.0260 c3         1 FOF      -0.039200
     12 C12          3.5070     0.8020     0.0770 c2         1 FOF      -0.096400
     13 C13          4.0400     1.9360     0.9420 c3         1 FOF      -0.057900
     14 C14          4.2800    -0.0650    -0.6040 c2         1 FOF      -0.225200
     15 C15          5.7920    -0.0910    -0.6400 c3         1 FOF       0.200800
     16 O1           6.2360    -1.1750    -1.4570 oh         1 FOF      -0.657000
     17 H1          -5.0150     2.6230    -0.7180 hc         1 FOF       0.038367
     18 H2          -5.1230     2.1630     0.9870 hc         1 FOF       0.038367
     19 H3          -3.6300     1.8900     0.0960 hc         1 FOF       0.038367
     20 H4          -7.1700     1.1720    -1.1330 hc         1 FOF       0.038367
     21 H5          -7.1390    -0.5440    -0.7110 hc         1 FOF       0.038367
     22 H6          -7.1880     0.6760     0.5680 hc         1 FOF       0.038367
     23 H7          -4.9730    -1.5210    -0.9610 ha         1 FOF       0.164000
     24 H8          -2.6650    -1.4070    -1.4620 hc         1 FOF       0.045700
     25 H9          -2.5430     0.2900    -1.0640 hc         1 FOF       0.045700
     26 H10         -2.7560    -0.2910     1.3860 hc         1 FOF       0.045200
     27 H11         -2.7590    -1.9920     0.9790 hc         1 FOF       0.045200
     28 H12         -0.5600    -2.3940    -0.9850 hc         1 FOF       0.039700
     29 H13          0.8490    -2.2510     0.0540 hc         1 FOF       0.039700
     30 H14         -0.5560    -3.1600     0.6100 hc         1 FOF       0.039700
     31 H15         -0.6860     0.8750     1.6030 ha         1 FOF       0.163000
     32 H16          1.6030     0.7760     2.1640 hc         1 FOF       0.048200
     33 H17          1.8150    -0.8290     1.5050 hc         1 FOF       0.048200
     34 H18          1.6670     0.1340    -0.8280 hc         1 FOF       0.045700
     35 H19          1.5710     1.7440    -0.1520 hc         1 FOF       0.045700
     36 H20          3.7430     1.8130     1.9900 hc         1 FOF       0.040367
     37 H21          5.1340     2.0000     0.9250 hc         1 FOF       0.040367
     38 H22          3.6570     2.9050     0.5990 hc         1 FOF       0.040367
     39 H23          3.8140    -0.8450    -1.2060 ha         1 FOF       0.176000
     40 H24          6.1660     0.8610    -1.0390 h1         1 FOF       0.021200
     41 H25          6.1810    -0.2030     0.3810 h1         1 FOF       0.021200
     42 H26          7.2180    -1.1500    -1.4480 ho         1 FOF       0.438000
@<TRIPOS>BOND
     1     1     2 1   
     2     1    17 1   
     3     1    18 1   
     4     1    19 1   
     5     2     3 1   
     6     2     4 2   
     7     3    20 1   
     8     3    21 1   
     9     3    22 1   
    10     4     5 1   
    11     4    23 1   
    12     5     6 1   
    13     5    24 1   
    14     5    25 1   
    15     6     7 1   
    16     6    26 1   
    17     6    27 1   
    18     7     8 1   
    19     7     9 2   
    20     8    28 1   
    21     8    29 1   
    22     8    30 1   
    23     9    10 1   
    24     9    31 1   
    25    10    11 1   
    26    10    32 1   
    27    10    33 1   
    28    11    12 1   
    29    11    34 1   
    30    11    35 1   
    31    12    13 1   
    32    12    14 2   
    33    13    36 1   
    34    13    37 1   
    35    13    38 1   
    36    14    15 1   
    37    14    39 1   
    38    15    16 1   
    39    15    40 1   
    40    15    41 1   
    41    16    42 1   
@<TRIPOS>SUBSTRUCTURE
     1 FOF         1 TEMP              0 ****  ****    0 ROOT
