@<TRIPOS>MOLECULE
FOG
   32    32     1     0     0
SMALL
bcc


@<TRIPOS>ATOM
      1 C           -4.7630    -0.6070     0.3180 c          1 FOG       0.926600
      2 O1          -4.5830    -1.6640    -0.3180 o          1 FOG      -0.848300
      3 CA1         -3.5650     0.3430     0.4950 c3         1 FOG      -0.205400
      4 CM          -2.2210    -0.1960     0.0320 c3         1 FOG      -0.080400
      5 CH          -1.0610     0.7450     0.3370 c3         1 FOG       0.149100
      6 OH          -1.2290     2.0140    -0.2710 oh         1 FOG      -0.613800
      7 CA           0.3000     0.1400    -0.0370 c3         1 FOG       0.133500
      8 N            0.4250     0.0570    -1.4840 n8         1 FOG      -0.879800
      9 CB           1.4420     0.9110     0.6490 c3         1 FOG      -0.075100
     10 CG           2.7890     0.3110     0.3680 ca         1 FOG      -0.071300
     11 CD1          3.6190     0.8240    -0.6270 ca         1 FOG      -0.130500
     12 CD2          3.2240    -0.8090     1.0770 ca         1 FOG      -0.130500
     13 CE1          4.8480     0.2400    -0.9050 ca         1 FOG      -0.130000
     14 CE2          4.4510    -1.3970     0.8030 ca         1 FOG      -0.130000
     15 CZ           5.2680    -0.8740    -0.1920 ca         1 FOG      -0.140000
     16 OXT         -5.8400    -0.2240     0.8240 o          1 FOG      -0.848300
     17 HA1         -3.8010     1.2740    -0.0310 hc         1 FOG       0.020700
     18 HM          -2.0200    -1.1510     0.5250 hc         1 FOG       0.051200
     19 HA           0.3120    -0.8850     0.3460 h1         1 FOG       0.061700
     20 H            0.7150     0.9500    -1.8650 hn         1 FOG       0.331800
     21 H2           1.1570    -0.5950    -1.7340 hn         1 FOG       0.331800
     22 HB2          1.4170     1.9520     0.3160 hc         1 FOG       0.057200
     23 HB3          1.2630     0.9200     1.7280 hc         1 FOG       0.057200
     24 HD1          3.3070     1.7020    -1.1820 ha         1 FOG       0.131000
     25 HD2          2.5950    -1.2220     1.8570 ha         1 FOG       0.131000
     26 HE1          5.4790     0.6590    -1.6790 ha         1 FOG       0.124000
     27 HE2          4.7710    -2.2630     1.3680 ha         1 FOG       0.124000
     28 HZ           6.2280    -1.3280    -0.4050 ha         1 FOG       0.122000
     29 HCH         -1.0540     0.9370     1.4160 h1         1 FOG       0.053700
     30 HO1         -1.4030     1.8660    -1.2070 ho         1 FOG       0.405000
     31 HM1         -2.2420    -0.4130    -1.0400 hc         1 FOG       0.051200
     32 HA2         -3.5050     0.6260     1.5520 hc         1 FOG       0.020700
@<TRIPOS>BOND
     1     1     2 1   
     2     1     3 1   
     3     1    16 1   
     4     3     4 1   
     5     3    17 1   
     6     3    32 1   
     7     4     5 1   
     8     4    18 1   
     9     4    31 1   
    10     5     6 1   
    11     5     7 1   
    12     5    29 1   
    13     6    30 1   
    14     7     8 1   
    15     7     9 1   
    16     7    19 1   
    17     8    20 1   
    18     8    21 1   
    19     9    10 1   
    20     9    22 1   
    21     9    23 1   
    22    10    11 ar  
    23    10    12 ar  
    24    11    13 ar  
    25    11    24 1   
    26    12    14 ar  
    27    12    25 1   
    28    13    15 ar  
    29    13    26 1   
    30    14    15 ar  
    31    14    27 1   
    32    15    28 1   
@<TRIPOS>SUBSTRUCTURE
     1 FOG         1 TEMP              0 ****  ****    0 ROOT
