@<TRIPOS>MOLECULE
FOG
   32    32     1     0     0
SMALL
No Charge or Current Charge


@<TRIPOS>ATOM
      1 C           -4.7620    -0.7060     0.3570 c          1 FOG       0.926600
      2 O1          -5.3470    -0.7900    -0.7160 o          1 FOG      -0.848300
      3 CA1         -3.6840     0.3810     0.5260 c3         1 FOG      -0.205400
      4 CM          -2.2950    -0.1560     0.0780 c3         1 FOG      -0.080400
      5 CH          -1.1250     0.8430     0.2900 c3         1 FOG       0.149100
      6 OH          -1.3040     1.9660    -0.5780 oh         1 FOG      -0.613800
      7 CA           0.2690     0.2210    -0.0390 c3         1 FOG       0.133500
      8 N            0.4600     0.0900    -1.5070 n8         1 FOG      -0.879800
      9 CB           1.4420     1.0360     0.5630 c3         1 FOG      -0.075100
     10 CG           2.8070     0.3910     0.3320 ca         1 FOG      -0.071300
     11 CD1          3.7090     0.9400    -0.6010 ca         1 FOG      -0.130500
     12 CD2          3.1770    -0.7600     1.0560 ca         1 FOG      -0.130500
     13 CE1          4.9650     0.3420    -0.8100 ca         1 FOG      -0.130000
     14 CE2          4.4320    -1.3570     0.8470 ca         1 FOG      -0.130000
     15 CZ           5.3270    -0.8060    -0.0860 ca         1 FOG      -0.140000
     16 OXT         -4.9580    -1.4830     1.2830 o          1 FOG      -0.848300
     17 HA1         -3.9060     1.2370    -0.1220 hc         1 FOG       0.020700
     18 HM          -2.0770    -1.0700     0.6450 hc         1 FOG       0.051200
     19 HA           0.3150    -0.7850     0.4020 h1         1 FOG       0.061700
     20 H            1.4370    -0.1640    -1.6810 hn         1 FOG       0.331800
     21 H2          -0.0750    -0.7160    -1.8450 hn         1 FOG       0.331800
     22 HB2          1.4270     2.0540     0.1530 hc         1 FOG       0.057200
     23 HB3          1.2760     1.1470     1.6410 hc         1 FOG       0.057200
     24 HD1          3.4370     1.8290    -1.1670 ha         1 FOG       0.131000
     25 HD2          2.4910    -1.1920     1.7820 ha         1 FOG       0.131000
     26 HE1          5.6570     0.7700    -1.5330 ha         1 FOG       0.124000
     27 HE2          4.7120    -2.2460     1.4090 ha         1 FOG       0.124000
     28 HZ           6.2990    -1.2690    -0.2480 ha         1 FOG       0.122000
     29 HCH         -1.1330     1.1610     1.3420 h1         1 FOG       0.053700
     30 HO1         -0.7290     1.7360    -1.3450 ho         1 FOG       0.405000
     31 HM1         -2.3440    -0.4490    -0.9780 hc         1 FOG       0.051200
     32 HA2         -3.5750     0.6460     1.5850 hc         1 FOG       0.020700
@<TRIPOS>BOND
     1     1     2 1   
     2     1     3 1   
     3     1    16 1   
     4     3     4 1   
     5     3    17 1   
     6     3    32 1   
     7     4     5 1   
     8     4    18 1   
     9     4    31 1   
    10     5     6 1   
    11     5     7 1   
    12     5    29 1   
    13     6    30 1   
    14     7     8 1   
    15     7     9 1   
    16     7    19 1   
    17     8    20 1   
    18     8    21 1   
    19     9    10 1   
    20     9    22 1   
    21     9    23 1   
    22    10    11 ar  
    23    10    12 ar  
    24    11    13 ar  
    25    11    24 1   
    26    12    14 ar  
    27    12    25 1   
    28    13    15 ar  
    29    13    26 1   
    30    14    15 ar  
    31    14    27 1   
    32    15    28 1   
@<TRIPOS>SUBSTRUCTURE
     1 FOG         1 TEMP              0 ****  ****    0 ROOT
