@<TRIPOS>MOLECULE
FOH
   42    41     1     0     0
SMALL
bcc


@<TRIPOS>ATOM
      1 C1          -5.1570    -0.1980    -0.8400 c3         1 FOH      -0.055400
      2 C2          -4.2980    -1.1100    -0.0140 c2         1 FOH      -0.112400
      3 C3          -5.0380    -2.2540     0.6170 c3         1 FOH      -0.055400
      4 C4          -2.9850    -0.9560     0.1700 c2         1 FOH      -0.174200
      5 C5          -2.0990     0.1270    -0.3590 c3         1 FOH      -0.036200
      6 C6          -1.6370     1.0800     0.7570 c3         1 FOH      -0.037200
      7 C7          -0.7220     2.1620     0.2440 c2         1 FOH      -0.113400
      8 C8          -1.4060     3.4230    -0.1970 c3         1 FOH      -0.053900
      9 C9           0.6010     2.0210     0.1350 c2         1 FOH      -0.170200
     10 C10          1.4060     0.8050     0.4710 c3         1 FOH      -0.039200
     11 C11          1.9740     0.1330    -0.7910 c3         1 FOH      -0.040200
     12 C12          2.6640    -1.1650    -0.4650 c2         1 FOH      -0.096400
     13 C13          1.7530    -2.3550    -0.3820 c3         1 FOH      -0.056900
     14 C14          3.9700    -1.2830    -0.2180 c2         1 FOH      -0.174200
     15 C15          4.9930    -0.1950    -0.2460 c3         1 FOH       0.176600
     16 O1           5.5430    -0.0670     1.0550 oh         1 FOH      -0.595800
     17 H1          -5.9910     0.1810    -0.2440 hc         1 FOH       0.038533
     18 H2          -4.6210     0.6590    -1.2420 hc         1 FOH       0.038533
     19 H3          -5.6000    -0.7410    -1.6780 hc         1 FOH       0.038533
     20 H4          -5.5340    -2.8660    -0.1400 hc         1 FOH       0.038533
     21 H5          -4.3780    -2.9010     1.1950 hc         1 FOH       0.038533
     22 H6          -5.8250    -1.8900     1.2830 hc         1 FOH       0.038533
     23 H7          -2.4810    -1.6820     0.8060 ha         1 FOH       0.113000
     24 H8          -1.2130    -0.3240    -0.8180 hc         1 FOH       0.044700
     25 H9          -2.5880     0.7000    -1.1500 hc         1 FOH       0.044700
     26 H10         -2.5210     1.5350     1.2110 hc         1 FOH       0.045700
     27 H11         -1.1590     0.4960     1.5460 hc         1 FOH       0.045700
     28 H12         -1.8970     3.9200     0.6440 hc         1 FOH       0.038033
     29 H13         -0.7110     4.1310    -0.6480 hc         1 FOH       0.038033
     30 H14         -2.1900     3.2120    -0.9290 hc         1 FOH       0.038033
     31 H15          1.1680     2.8520    -0.2800 ha         1 FOH       0.114000
     32 H16          2.2470     1.0800     1.1150 hc         1 FOH       0.051200
     33 H17          0.8110     0.0820     1.0320 hc         1 FOH       0.051200
     34 H18          1.1530    -0.0640    -1.4870 hc         1 FOH       0.044200
     35 H19          2.6380     0.8320    -1.3020 hc         1 FOH       0.044200
     36 H20          1.2790    -2.5510    -1.3470 hc         1 FOH       0.040700
     37 H21          2.2790    -3.2570    -0.0720 hc         1 FOH       0.040700
     38 H22          0.9430    -2.1800     0.3310 hc         1 FOH       0.040700
     39 H23          4.3560    -2.2670     0.0400 ha         1 FOH       0.127000
     40 H24          5.7750    -0.4590    -0.9700 h1         1 FOH       0.021200
     41 H25          4.5570     0.7500    -0.5870 h1         1 FOH       0.021200
     42 H26          6.3030     0.5190     0.9960 ho         1 FOH       0.399000
@<TRIPOS>BOND
     1     1     2 1   
     2     1    17 1   
     3     1    18 1   
     4     1    19 1   
     5     2     3 1   
     6     2     4 2   
     7     3    20 1   
     8     3    21 1   
     9     3    22 1   
    10     4     5 1   
    11     4    23 1   
    12     5     6 1   
    13     5    24 1   
    14     5    25 1   
    15     6     7 1   
    16     6    26 1   
    17     6    27 1   
    18     7     8 1   
    19     7     9 2   
    20     8    28 1   
    21     8    29 1   
    22     8    30 1   
    23     9    10 1   
    24     9    31 1   
    25    10    11 1   
    26    10    32 1   
    27    10    33 1   
    28    11    12 1   
    29    11    34 1   
    30    11    35 1   
    31    12    13 1   
    32    12    14 2   
    33    13    36 1   
    34    13    37 1   
    35    13    38 1   
    36    14    15 1   
    37    14    39 1   
    38    15    16 1   
    39    15    40 1   
    40    15    41 1   
    41    16    42 1   
@<TRIPOS>SUBSTRUCTURE
     1 FOH         1 TEMP              0 ****  ****    0 ROOT
