@<TRIPOS>MOLECULE
FOH
   42    41     1     0     0
SMALL
No Charge or Current Charge


@<TRIPOS>ATOM
      1 C1          -5.2830     0.1640    -0.5140 c3         1 FOH      -0.055400
      2 C2          -4.4620    -1.0340    -0.0590 c2         1 FOH      -0.112400
      3 C3          -5.3330    -2.1840     0.4120 c3         1 FOH      -0.055400
      4 C4          -3.1170    -1.1000    -0.0560 c2         1 FOH      -0.224200
      5 C5          -2.1390    -0.0370    -0.5220 c3         1 FOH      -0.036200
      6 C6          -1.7860     0.9640     0.5980 c3         1 FOH      -0.037200
      7 C7          -0.8110     2.0400     0.1330 c2         1 FOH      -0.113400
      8 C8          -1.5130     3.2890    -0.3720 c3         1 FOH      -0.053900
      9 C9           0.5310     1.9240     0.1350 c2         1 FOH      -0.220200
     10 C10          1.3620     0.7260     0.5670 c3         1 FOH      -0.039200
     11 C11          2.0500     0.0410    -0.6330 c3         1 FOH      -0.040200
     12 C12          2.8660    -1.1810    -0.2310 c2         1 FOH      -0.096400
     13 C13          2.0270    -2.4380    -0.0710 c3         1 FOH      -0.056900
     14 C14          4.1990    -1.1740    -0.0450 c2         1 FOH      -0.224200
     15 C15          5.1190     0.0190    -0.1800 c3         1 FOH       0.199800
     16 O1           6.4280    -0.3280     0.2750 oh         1 FOH      -0.658000
     17 H1          -5.9510     0.5070     0.2860 hc         1 FOH       0.038533
     18 H2          -4.6650     1.0210    -0.8010 hc         1 FOH       0.038533
     19 H3          -5.9070    -0.0940    -1.3780 hc         1 FOH       0.038533
     20 H4          -5.9970    -2.5300    -0.3900 hc         1 FOH       0.038533
     21 H5          -4.7340    -3.0430     0.7360 hc         1 FOH       0.038533
     22 H6          -5.9610    -1.8830     1.2600 hc         1 FOH       0.038533
     23 H7          -2.6240    -2.0080     0.2970 ha         1 FOH       0.163000
     24 H8          -1.2190    -0.5150    -0.8790 hc         1 FOH       0.044700
     25 H9          -2.5410     0.5100    -1.3820 hc         1 FOH       0.044700
     26 H10         -2.7080     1.4200     0.9790 hc         1 FOH       0.045700
     27 H11         -1.3740     0.4070     1.4460 hc         1 FOH       0.045700
     28 H12         -2.1110     3.7550     0.4210 hc         1 FOH       0.038033
     29 H13         -0.7990     4.0420    -0.7280 hc         1 FOH       0.038033
     30 H14         -2.1860     3.0560    -1.2060 hc         1 FOH       0.038033
     31 H15          1.1400     2.7560    -0.2230 ha         1 FOH       0.164000
     32 H16          2.1300     1.0490     1.2800 hc         1 FOH       0.051200
     33 H17          0.7550    -0.0150     1.0950 hc         1 FOH       0.051200
     34 H18          1.2920    -0.2360    -1.3770 hc         1 FOH       0.044200
     35 H19          2.6870     0.7830    -1.1290 hc         1 FOH       0.044200
     36 H20          1.5050    -2.6860    -1.0020 hc         1 FOH       0.040700
     37 H21          2.6430    -3.3050     0.1990 hc         1 FOH       0.040700
     38 H22          1.2720    -2.3190     0.7150 hc         1 FOH       0.040700
     39 H23          4.7120    -2.0950     0.2350 ha         1 FOH       0.177000
     40 H24          5.1550     0.3360    -1.2310 h1         1 FOH       0.021200
     41 H25          4.7240     0.8560     0.4110 h1         1 FOH       0.021200
     42 H26          6.9850     0.4750     0.1690 ho         1 FOH       0.438000
@<TRIPOS>BOND
     1     1     2 1   
     2     1    17 1   
     3     1    18 1   
     4     1    19 1   
     5     2     3 1   
     6     2     4 2   
     7     3    20 1   
     8     3    21 1   
     9     3    22 1   
    10     4     5 1   
    11     4    23 1   
    12     5     6 1   
    13     5    24 1   
    14     5    25 1   
    15     6     7 1   
    16     6    26 1   
    17     6    27 1   
    18     7     8 1   
    19     7     9 2   
    20     8    28 1   
    21     8    29 1   
    22     8    30 1   
    23     9    10 1   
    24     9    31 1   
    25    10    11 1   
    26    10    32 1   
    27    10    33 1   
    28    11    12 1   
    29    11    34 1   
    30    11    35 1   
    31    12    13 1   
    32    12    14 2   
    33    13    36 1   
    34    13    37 1   
    35    13    38 1   
    36    14    15 1   
    37    14    39 1   
    38    15    16 1   
    39    15    40 1   
    40    15    41 1   
    41    16    42 1   
@<TRIPOS>SUBSTRUCTURE
     1 FOH         1 TEMP              0 ****  ****    0 ROOT
