@<TRIPOS>MOLECULE
FOI
   40    43     1     0     0
SMALL
No Charge or Current Charge


@<TRIPOS>ATOM
      1 C1           3.0250    -3.7510     0.9250 ca         1 FOI       0.300900
      2 N2           4.3270    -3.4700     0.6200 nb         1 FOI      -0.641000
      3 C3           4.6360    -2.1930     0.2520 ca         1 FOI       0.349900
      4 C4           3.6390    -1.2050     0.1930 ca         1 FOI       0.042100
      5 C5           2.3330    -1.4850     0.5030 ca         1 FOI      -0.152800
      6 C6           1.9840    -2.7910     0.8820 ca         1 FOI      -0.096000
      7 C7           1.5550    -0.2740     0.3390 cc         1 FOI       0.196800
      8 C8           2.4980     0.6800    -0.0490 cd         1 FOI      -0.121100
      9 O9           3.7480     0.1060    -0.1470 os         1 FOI      -0.125200
     10 C10          2.3130     2.1360    -0.2910 c          1 FOI       0.646300
     11 O11          1.2520     2.7310    -0.1530 o          1 FOI      -0.494000
     12 O12          3.4720     2.7730    -0.6640 os         1 FOI      -0.419100
     13 C13          3.4230     4.1900    -0.9130 c3         1 FOI       0.151900
     14 N14          0.1960    -0.2010     0.5590 nu         1 FOI      -0.772200
     15 C15         -0.7240     0.3880    -0.4080 c6         1 FOI       0.285900
     16 C16         -1.4550    -0.7920    -1.0430 c2         1 FOI      -0.302200
     17 C17         -2.7930    -0.9690    -0.9310 ce         1 FOI      -0.072200
     18 C18         -3.6060    -0.0190    -0.1840 cc         1 FOI      -0.156800
     19 C19         -2.9930     1.0980     0.4340 cc         1 FOI      -0.078000
     20 C20         -1.6580     1.3290     0.3490 c2         1 FOI      -0.111200
     21 C21         -3.9820     1.8540     1.1110 cc         1 FOI      -0.084000
     22 C22         -5.1870     1.2210     0.9180 cd         1 FOI      -0.150000
     23 C23         -4.9580     0.0570     0.1060 cd         1 FOI       0.263000
     24 N24         -5.9790    -0.8000    -0.2610 nu         1 FOI      -0.676700
     25 O25         -5.8890    -1.4580    -1.5600 oh         1 FOI      -0.439300
     26 H1           2.8100    -4.7790     1.2130 h4         1 FOI       0.024100
     27 H3           5.6750    -1.9740     0.0080 h4         1 FOI       0.040100
     28 H6           0.9630    -3.0670     1.1300 ha         1 FOI       0.127000
     29 H13          4.4140     4.5620    -1.2020 h1         1 FOI       0.050033
     30 H13A         2.7230     4.4210    -1.7280 h1         1 FOI       0.050033
     31 H13B         3.1040     4.7360    -0.0150 h1         1 FOI       0.050033
     32 HN14        -0.1760    -1.0100     1.0530 hn         1 FOI       0.470000
     33 H16         -0.8420    -1.4940    -1.6080 ha         1 FOI       0.180000
     34 H17         -3.3010    -1.8180    -1.3900 ha         1 FOI       0.184000
     35 H20         -1.2210     2.1970     0.8390 ha         1 FOI       0.205000
     36 H21         -3.8050     2.7630     1.6780 ha         1 FOI       0.133000
     37 H22         -6.1440     1.5470     1.3110 ha         1 FOI       0.127000
     38 HN24        -6.9360    -0.4700    -0.0650 hn         1 FOI       0.466000
     39 HO25        -5.7870    -2.4270    -1.3850 ho         1 FOI       0.458000
     40 H15         -0.1940     0.9460    -1.1950 h1         1 FOI       0.092700
@<TRIPOS>BOND
     1     1     2 ar  
     2     1     6 ar  
     3     1    26 1   
     4     2     3 ar  
     5     3     4 ar  
     6     3    27 1   
     7     4     5 ar  
     8     4     9 1   
     9     5     6 ar  
    10     5     7 1   
    11     6    28 1   
    12     7     8 2   
    13     7    14 1   
    14     8     9 1   
    15     8    10 1   
    16    10    11 2   
    17    10    12 1   
    18    12    13 1   
    19    13    29 1   
    20    13    30 1   
    21    13    31 1   
    22    14    15 1   
    23    14    32 1   
    24    15    16 1   
    25    15    20 1   
    26    15    40 1   
    27    16    17 2   
    28    16    33 1   
    29    17    18 1   
    30    17    34 1   
    31    18    19 1   
    32    18    23 2   
    33    19    20 2   
    34    19    21 1   
    35    20    35 1   
    36    21    22 2   
    37    21    36 1   
    38    22    23 1   
    39    22    37 1   
    40    23    24 1   
    41    24    25 1   
    42    24    38 1   
    43    25    39 1   
@<TRIPOS>SUBSTRUCTURE
     1 FOI         1 TEMP              0 ****  ****    0 ROOT
