@<TRIPOS>MOLECULE
FOI
   40    43     1     0     0
SMALL
abcg2


@<TRIPOS>ATOM
      1 C1           3.1720    -3.6620     0.9570 ca         1 FOI       0.300900
      2 N2           4.4030    -3.3310     0.5420 nb         1 FOI      -0.641000
      3 C3           4.6450    -2.1060     0.1120 ca         1 FOI       0.349900
      4 C4           3.6210    -1.1690     0.1000 ca         1 FOI       0.042100
      5 C5           2.3420    -1.4960     0.5300 ca         1 FOI      -0.152800
      6 C6           2.0980    -2.7930     0.9730 ca         1 FOI      -0.096000
      7 C7           1.5530    -0.3000     0.3650 cc         1 FOI       0.196800
      8 C8           2.4310     0.6370    -0.1240 cd         1 FOI      -0.121100
      9 O9           3.6840     0.1020    -0.3090 os         1 FOI      -0.125200
     10 C10          2.2780     2.0680    -0.3230 c          1 FOI       0.646300
     11 O11          1.2530     2.6710    -0.0970 o          1 FOI      -0.494000
     12 O12          3.3980     2.6330    -0.7460 os         1 FOI      -0.419100
     13 C13          3.3860     4.0490    -0.9300 c3         1 FOI       0.151900
     14 N14          0.2310    -0.1990     0.6740 nu         1 FOI      -0.772200
     15 C15         -0.7640     0.3610    -0.2520 c6         1 FOI       0.285900
     16 C16         -1.4700    -0.7440    -0.9870 c2         1 FOI      -0.302200
     17 C17         -2.8010    -0.9130    -0.9770 ce         1 FOI      -0.072200
     18 C18         -3.6460    -0.0060    -0.2440 cc         1 FOI      -0.156800
     19 C19         -3.0100     1.0810     0.4960 cc         1 FOI      -0.078000
     20 C20         -1.6860     1.2690     0.5070 c2         1 FOI      -0.111200
     21 C21         -4.0640     1.8350     1.1670 cc         1 FOI      -0.084000
     22 C22         -5.2380     1.2500     0.8620 cd         1 FOI      -0.150000
     23 C23         -4.9900     0.1010    -0.0210 cd         1 FOI       0.263000
     24 N24         -6.0360    -0.6880    -0.4120 nu         1 FOI      -0.676700
     25 O25         -5.7960    -1.4720    -1.5240 oh         1 FOI      -0.439300
     26 H1           3.0440    -4.6840     1.2910 h4         1 FOI       0.024100
     27 H3           5.6480    -1.8650    -0.2210 h4         1 FOI       0.040100
     28 H6           1.1270    -3.1240     1.3150 ha         1 FOI       0.127000
     29 H13          4.3910     4.3140    -1.2440 h1         1 FOI       0.050033
     30 H13A         2.6750     4.3430    -1.7010 h1         1 FOI       0.050033
     31 H13B         3.1470     4.5700    -0.0030 h1         1 FOI       0.050033
     32 HN14        -0.1270    -1.0010     1.1720 hn         1 FOI       0.470000
     33 H16         -0.8370    -1.4260    -1.5420 ha         1 FOI       0.180000
     34 H17         -3.2370    -1.7390    -1.5220 ha         1 FOI       0.184000
     35 H20         -1.2290     2.0770     1.0650 ha         1 FOI       0.205000
     36 H21         -3.9130     2.7040     1.7900 ha         1 FOI       0.133000
     37 H22         -6.2210     1.5540     1.1950 ha         1 FOI       0.127000
     38 HN24        -6.9180    -0.2010    -0.5180 hn         1 FOI       0.466000
     39 HO25        -5.8690    -2.3810    -1.2100 ho         1 FOI       0.458000
     40 H15         -0.2140     0.9680    -0.9750 h1         1 FOI       0.092700
@<TRIPOS>BOND
     1     1     2 ar  
     2     1     6 ar  
     3     1    26 1   
     4     2     3 ar  
     5     3     4 ar  
     6     3    27 1   
     7     4     5 ar  
     8     4     9 1   
     9     5     6 ar  
    10     5     7 1   
    11     6    28 1   
    12     7     8 2   
    13     7    14 1   
    14     8     9 1   
    15     8    10 1   
    16    10    11 2   
    17    10    12 1   
    18    12    13 1   
    19    13    29 1   
    20    13    30 1   
    21    13    31 1   
    22    14    15 1   
    23    14    32 1   
    24    15    16 1   
    25    15    20 1   
    26    15    40 1   
    27    16    17 2   
    28    16    33 1   
    29    17    18 1   
    30    17    34 1   
    31    18    19 1   
    32    18    23 2   
    33    19    20 2   
    34    19    21 1   
    35    20    35 1   
    36    21    22 2   
    37    21    36 1   
    38    22    23 1   
    39    22    37 1   
    40    23    24 1   
    41    24    25 1   
    42    24    38 1   
    43    25    39 1   
@<TRIPOS>SUBSTRUCTURE
     1 FOI         1 TEMP              0 ****  ****    0 ROOT
