@<TRIPOS>MOLECULE
FOJ
   35    37     1     0     0
SMALL
bcc


@<TRIPOS>ATOM
      1 N1          -6.0100    -2.0070     2.8900 n1         1 FOJ      -0.326800
      2 C16         -5.5160    -1.4180     2.0330 cg         1 FOJ       0.219800
      3 C11         -4.9010    -0.6890     0.9700 ca         1 FOJ       0.029000
      4 C12         -3.6180    -0.1790     1.1490 ca         1 FOJ      -0.113000
      5 C13         -3.0450     0.5230     0.1040 ca         1 FOJ       0.110100
      6 C14         -3.7070     0.7240    -1.0960 ca         1 FOJ      -0.163000
      7 C15         -4.9810     0.2040    -1.2280 ca         1 FOJ       0.151900
      8 F5          -5.6340     0.3970    -2.3740 f          1 FOJ      -0.123900
      9 C10         -5.6010    -0.5050    -0.2200 ca         1 FOJ      -0.132000
     10 O4          -1.8000     1.0720     0.2750 os         1 FOJ      -0.251200
     11 C2          -0.6950     0.3650    -0.0490 ca         1 FOJ       0.218100
     12 C3          -0.7610    -0.9420    -0.5270 ca         1 FOJ      -0.222000
     13 C4           0.4040    -1.6100    -0.8370 ca         1 FOJ       0.045000
     14 C8           1.6050    -0.9590    -0.6310 ca         1 FOJ      -0.310500
     15 S1           3.1760    -1.6410    -1.0000 sy         1 FOJ       1.052300
     16 O1           3.5840    -1.3110    -2.3570 o          1 FOJ      -0.545300
     17 O2           3.2960    -3.0040    -0.5150 o          1 FOJ      -0.545300
     18 C5           3.9960    -0.4210     0.1150 c5         1 FOJ       0.357400
     19 F2           4.0140    -0.9540     1.3430 f          1 FOJ      -0.193800
     20 F1           5.2560    -0.2090    -0.2780 f          1 FOJ      -0.193800
     21 C7           1.6970     0.3340    -0.1310 ca         1 FOJ       0.059700
     22 C6           3.1170     0.8400     0.0690 c5         1 FOJ       0.154400
     23 O3           3.2680     1.5430     1.2540 oh         1 FOJ      -0.544800
     24 C1           0.5240     1.0370     0.1260 ca         1 FOJ      -0.180300
     25 C9           0.4820     2.4840     0.5340 c3         1 FOJ       0.488200
     26 F3           0.6360     2.6260     1.8770 f          1 FOJ      -0.236300
     27 F4           1.4860     3.1750    -0.0690 f          1 FOJ      -0.236300
     28 H1          -3.0850    -0.3250     2.0790 ha         1 FOJ       0.172000
     29 H2          -3.2450     1.2770    -1.9040 ha         1 FOJ       0.172000
     30 H3          -6.5980    -0.9010    -0.3540 ha         1 FOJ       0.172000
     31 H4          -1.7090    -1.4420    -0.6650 ha         1 FOJ       0.157000
     32 H5           0.3670    -2.6210    -1.2180 ha         1 FOJ       0.158000
     33 H6           3.4170     1.4160    -0.8130 h1         1 FOJ       0.092700
     34 H7           3.7650     2.3490     1.0840 ho         1 FOJ       0.431000
     35 H8          -0.4520     2.9660     0.2500 h2         1 FOJ       0.076700
@<TRIPOS>BOND
     1     1     2 3   
     2     2     3 1   
     3     3     4 ar  
     4     3     9 ar  
     5     4     5 ar  
     6     4    28 1   
     7     5     6 ar  
     8     5    10 1   
     9     6     7 ar  
    10     6    29 1   
    11     7     8 1   
    12     7     9 ar  
    13     9    30 1   
    14    10    11 1   
    15    11    12 ar  
    16    11    24 ar  
    17    12    13 ar  
    18    12    31 1   
    19    13    14 ar  
    20    13    32 1   
    21    14    15 1   
    22    14    21 ar  
    23    15    16 2   
    24    15    17 2   
    25    15    18 1   
    26    18    19 1   
    27    18    20 1   
    28    18    22 1   
    29    21    22 1   
    30    21    24 ar  
    31    22    23 1   
    32    22    33 1   
    33    23    34 1   
    34    24    25 1   
    35    25    26 1   
    36    25    27 1   
    37    25    35 1   
@<TRIPOS>SUBSTRUCTURE
     1 FOJ         1 TEMP              0 ****  ****    0 ROOT
