@<TRIPOS>MOLECULE
FOJ
   35    37     1     0     0
SMALL
No Charge or Current Charge


@<TRIPOS>ATOM
      1 N1          -4.6020    -2.3800     3.0560 n1         1 FOJ      -0.416000
      2 C16         -4.5370    -1.6470     2.1500 cg         1 FOJ       0.309000
      3 C11         -4.4470    -0.7450     1.0330 ca         1 FOJ       0.029000
      4 C12         -3.1920    -0.2530     0.6200 ca         1 FOJ      -0.095000
      5 C13         -3.1040     0.6270    -0.4780 ca         1 FOJ       0.110100
      6 C14         -4.2690     1.0310    -1.1480 ca         1 FOJ      -0.145000
      7 C15         -5.5160     0.5410    -0.7370 ca         1 FOJ       0.187000
      8 F5          -6.6350     0.9260    -1.3880 f          1 FOJ      -0.159000
      9 C10         -5.6110    -0.3460     0.3470 ca         1 FOJ      -0.114000
     10 O4          -1.8930     1.1320    -0.8950 os         1 FOJ      -0.251200
     11 C2          -0.7180     0.4200    -0.8030 ca         1 FOJ       0.218100
     12 C3          -0.6850    -0.9070    -1.2730 ca         1 FOJ      -0.204000
     13 C4           0.5040    -1.6420    -1.2220 ca         1 FOJ       0.063000
     14 C8           1.6320    -1.0220    -0.6740 ca         1 FOJ      -0.310500
     15 S1           3.2180    -1.7490    -0.5550 sy         1 FOJ       1.021500
     16 O1           3.8570    -1.6350    -1.8740 o          1 FOJ      -0.474500
     17 O2           3.0860    -3.0540     0.1090 o          1 FOJ      -0.474500
     18 C5           3.9440    -0.4990     0.5920 c5         1 FOJ       0.004000
     19 F2           3.9170    -0.9750     1.9070 f          1 FOJ      -0.072500
     20 F1           5.2740    -0.2110     0.2740 f          1 FOJ      -0.072500
     21 C7           1.6380     0.2800    -0.1600 ca         1 FOJ       0.059700
     22 C6           3.0100     0.7780     0.4100 c5         1 FOJ       0.177600
     23 O3           2.8780     1.4870     1.6510 oh         1 FOJ      -0.607000
     24 C1           0.4380     1.0410    -0.2690 ca         1 FOJ      -0.180300
     25 C9           0.3370     2.5130     0.1510 c3         1 FOJ       0.245600
     26 F3           0.2200     2.6490     1.4920 f          1 FOJ      -0.115000
     27 F4           1.4070     3.2420    -0.2420 f          1 FOJ      -0.115000
     28 H1          -2.2930    -0.5500     1.1560 ha         1 FOJ       0.154000
     29 H2          -4.2050     1.7180    -1.9870 ha         1 FOJ       0.154000
     30 H3          -6.5870    -0.7160     0.6530 ha         1 FOJ       0.154000
     31 H4          -1.5770    -1.3580    -1.6990 ha         1 FOJ       0.139000
     32 H5           0.5470    -2.6610    -1.6040 ha         1 FOJ       0.140000
     33 H6           3.4580     1.4430    -0.3430 h1         1 FOJ       0.092700
     34 H7           3.7820     1.7390     1.9390 ho         1 FOJ       0.470000
     35 H8          -0.5450     2.9770    -0.3020 h2         1 FOJ       0.076700
@<TRIPOS>BOND
     1     1     2 3   
     2     2     3 1   
     3     3     4 ar  
     4     3     9 ar  
     5     4     5 ar  
     6     4    28 1   
     7     5     6 ar  
     8     5    10 1   
     9     6     7 ar  
    10     6    29 1   
    11     7     8 1   
    12     7     9 ar  
    13     9    30 1   
    14    10    11 1   
    15    11    12 ar  
    16    11    24 ar  
    17    12    13 ar  
    18    12    31 1   
    19    13    14 ar  
    20    13    32 1   
    21    14    15 1   
    22    14    21 ar  
    23    15    16 2   
    24    15    17 2   
    25    15    18 1   
    26    18    19 1   
    27    18    20 1   
    28    18    22 1   
    29    21    22 1   
    30    21    24 ar  
    31    22    23 1   
    32    22    33 1   
    33    23    34 1   
    34    24    25 1   
    35    25    26 1   
    36    25    27 1   
    37    25    35 1   
@<TRIPOS>SUBSTRUCTURE
     1 FOJ         1 TEMP              0 ****  ****    0 ROOT
