@<TRIPOS>MOLECULE
FOK
   63    65     1     0     0
SMALL
abcg2


@<TRIPOS>ATOM
      1 C1          42.2570   -12.7640    52.7170 c6         1 FOK       0.167300
      2 O2          41.9160   -13.8420    51.8460 oh         1 FOK      -0.694000
      3 C2          43.1570   -13.2970    53.8260 c6         1 FOK      -0.100400
      4 C3          44.5240   -13.7050    53.3090 c6         1 FOK      -0.069400
      5 C4          45.2880   -12.5430    52.6580 c6         1 FOK      -0.027000
      6 C5          44.3800   -11.9810    51.5190 c6         1 FOK      -0.035700
      7 C6          45.0650   -10.9490    50.6100 c6         1 FOK       0.182300
      8 O3          45.4520    -9.7910    51.3100 oh         1 FOK      -0.657000
      9 C7          44.1980   -10.6420    49.3830 c6         1 FOK       0.143300
     10 O4          44.8410    -9.5940    48.6540 os         1 FOK      -0.467100
     11 C8          42.7500   -10.2260    49.6750 c6         1 FOK       0.215000
     12 O1          42.1290   -10.2710    48.4010 os         1 FOK      -0.455000
     13 C9          42.1420   -11.3600    50.5630 c6         1 FOK       0.069000
     14 O6          42.2080   -12.5030    49.7360 oh         1 FOK      -0.724000
     15 C10         42.9170   -11.5990    51.9160 c6         1 FOK      -0.022000
     16 C11         40.6430   -11.0400    50.6720 c          1 FOK       0.564100
     17 O7          40.0240   -10.8920    51.6980 o          1 FOK      -0.524100
     18 C12         39.9620   -10.9930    49.3270 c6         1 FOK      -0.205400
     19 C13         40.7290   -10.1840    48.2500 c6         1 FOK       0.253200
     20 C14         40.3960   -10.7720    46.9020 c2         1 FOK      -0.238200
     21 C15         41.2480   -11.2640    46.0140 c2         1 FOK      -0.275000
     22 C16         40.2320    -8.7300    48.2480 c3         1 FOK      -0.115100
     23 C17         42.6520    -8.8180    50.2640 c3         1 FOK      -0.115100
     24 C18         46.5630   -13.1290    52.0420 c3         1 FOK      -0.084600
     25 C19         45.7270   -11.5570    53.7480 c3         1 FOK      -0.084600
     26 C20         42.8390   -10.3820    52.8630 c3         1 FOK      -0.092100
     27 C21         45.1960    -9.7690    47.3800 c          1 FOK       0.605100
     28 O5          45.0430   -10.7930    46.7670 o          1 FOK      -0.474000
     29 C22         45.8110    -8.5200    46.8240 c3         1 FOK      -0.157100
     30 H1          41.3410   -12.3730    53.1700 h1         1 FOK       0.056700
     31 HO2         41.2990   -14.4300    52.2940 ho         1 FOK       0.460000
     32 H21         43.2550   -12.5580    54.6230 hc         1 FOK       0.045700
     33 H22         42.6550   -14.1510    54.2910 hc         1 FOK       0.045700
     34 H31         45.1260   -14.1120    54.1270 hc         1 FOK       0.045200
     35 H32         44.4120   -14.5140    52.5800 hc         1 FOK       0.045200
     36 H5          44.2790   -12.8480    50.8550 hc         1 FOK       0.067700
     37 H6          45.9600   -11.4400    50.2030 h1         1 FOK       0.036700
     38 HO3         45.9560    -9.2300    50.7110 ho         1 FOK       0.452000
     39 H7          44.1730   -11.5480    48.7770 h1         1 FOK       0.106700
     40 HO6         41.9910   -13.2590    50.3160 ho         1 FOK       0.542000
     41 H121        39.8490   -12.0290    48.9990 hc         1 FOK       0.078200
     42 H122        38.9570   -10.5870    49.4500 hc         1 FOK       0.078200
     43 H14         39.3330   -10.7680    46.6740 ha         1 FOK       0.165000
     44 H151        42.3160   -11.2970    46.1760 ha         1 FOK       0.173000
     45 H152        40.8870   -11.6590    45.0730 ha         1 FOK       0.173000
     46 H161        39.2010    -8.6910    47.8950 hc         1 FOK       0.042033
     47 H162        40.2480    -8.2800    49.2390 hc         1 FOK       0.042033
     48 H163        40.8400    -8.1200    47.5810 hc         1 FOK       0.042033
     49 H171        41.6850    -8.6170    50.7250 hc         1 FOK       0.052033
     50 H172        43.4120    -8.6350    51.0130 hc         1 FOK       0.052033
     51 H173        42.7920    -8.0850    49.4720 hc         1 FOK       0.052033
     52 H181        47.2320   -12.3600    51.6550 hc         1 FOK       0.035700
     53 H182        47.1200   -13.6850    52.8000 hc         1 FOK       0.035700
     54 H183        46.3360   -13.8220    51.2280 hc         1 FOK       0.035700
     55 H191        46.3460   -10.7600    53.3460 hc         1 FOK       0.035700
     56 H192        44.8970   -11.0950    54.2770 hc         1 FOK       0.035700
     57 H193        46.3210   -12.0950    54.4910 hc         1 FOK       0.035700
     58 H201        43.6450    -9.6770    52.7100 hc         1 FOK       0.049367
     59 H202        41.8980    -9.8470    52.7680 hc         1 FOK       0.049367
     60 H203        42.8970   -10.6960    53.9040 hc         1 FOK       0.049367
     61 H221        46.1520    -8.6860    45.8060 hc         1 FOK       0.067700
     62 H222        45.0830    -7.7080    46.8250 hc         1 FOK       0.067700
     63 H223        46.6540    -8.1980    47.4370 hc         1 FOK       0.067700
@<TRIPOS>BOND
     1     1     2 1   
     2     1     3 1   
     3     1    15 1   
     4     1    30 1   
     5     2    31 1   
     6     3     4 1   
     7     3    32 1   
     8     3    33 1   
     9     4     5 1   
    10     4    34 1   
    11     4    35 1   
    12     5     6 1   
    13     5    24 1   
    14     5    25 1   
    15     6     7 1   
    16     6    15 1   
    17     6    36 1   
    18     7     8 1   
    19     7     9 1   
    20     7    37 1   
    21     8    38 1   
    22     9    10 1   
    23     9    11 1   
    24     9    39 1   
    25    10    27 1   
    26    11    12 1   
    27    11    13 1   
    28    11    23 1   
    29    12    19 1   
    30    13    14 1   
    31    13    15 1   
    32    13    16 1   
    33    14    40 1   
    34    15    26 1   
    35    16    17 2   
    36    16    18 1   
    37    18    19 1   
    38    18    41 1   
    39    18    42 1   
    40    19    20 1   
    41    19    22 1   
    42    20    21 2   
    43    20    43 1   
    44    21    44 1   
    45    21    45 1   
    46    22    46 1   
    47    22    47 1   
    48    22    48 1   
    49    23    49 1   
    50    23    50 1   
    51    23    51 1   
    52    24    52 1   
    53    24    53 1   
    54    24    54 1   
    55    25    55 1   
    56    25    56 1   
    57    25    57 1   
    58    26    58 1   
    59    26    59 1   
    60    26    60 1   
    61    27    28 2   
    62    27    29 1   
    63    29    61 1   
    64    29    62 1   
    65    29    63 1   
@<TRIPOS>SUBSTRUCTURE
     1 FOK         1 TEMP              0 ****  ****    0 ROOT
