@<TRIPOS>MOLECULE
FOK
   63    65     1     0     0
SMALL
No Charge or Current Charge


@<TRIPOS>ATOM
      1 C1          42.3440   -12.9960    52.6460 c6         1 FOK       0.167300
      2 O2          42.1730   -14.1620    51.8210 oh         1 FOK      -0.694000
      3 C2          43.1930   -13.4260    53.8810 c6         1 FOK      -0.100400
      4 C3          44.6670   -13.7470    53.5110 c6         1 FOK      -0.069400
      5 C4          45.4220   -12.5570    52.8360 c6         1 FOK      -0.027000
      6 C5          44.5300   -12.1060    51.5520 c6         1 FOK      -0.035700
      7 C6          45.2040   -11.0710    50.5740 c6         1 FOK       0.182300
      8 O3          45.6540    -9.8750    51.2220 oh         1 FOK      -0.657000
      9 C7          44.3440   -10.7330    49.2920 c6         1 FOK       0.143300
     10 O4          45.0270    -9.6790    48.5540 os         1 FOK      -0.467100
     11 C8          42.8290   -10.3560    49.5740 c6         1 FOK       0.215000
     12 O1          42.0750   -10.3310    48.3040 os         1 FOK      -0.455000
     13 C9          42.2220   -11.5080    50.4550 c6         1 FOK       0.069000
     14 O6          42.3090   -12.7440    49.7040 oh         1 FOK      -0.724000
     15 C10         42.9710   -11.7510    51.8680 c6         1 FOK      -0.022000
     16 C11         40.1630   -11.0070    50.5210 c          1 FOK       0.564100
     17 O7          39.4280   -11.1820    51.4850 o          1 FOK      -0.524100
     18 C12         39.6500   -10.6820    49.1290 c6         1 FOK      -0.205400
     19 C13         40.6490    -9.9530    48.1730 c6         1 FOK       0.253200
     20 C14         40.2700   -10.3630    46.7450 c2         1 FOK      -0.238200
     21 C15         40.6420   -11.5200    46.1660 c2         1 FOK      -0.275000
     22 C16         40.4620    -8.4020    48.2330 c3         1 FOK      -0.115100
     23 C17         42.7440    -8.9100    50.1770 c3         1 FOK      -0.115100
     24 C18         46.8570   -13.0980    52.4260 c3         1 FOK      -0.084600
     25 C19         45.7290   -11.4590    53.9390 c3         1 FOK      -0.084600
     26 C20         42.7180   -10.4930    52.8160 c3         1 FOK      -0.092100
     27 C21         44.9460    -9.6020    47.1880 c          1 FOK       0.605100
     28 O5          44.5210   -10.4910    46.4650 o          1 FOK      -0.474000
     29 C22         45.6650    -8.3680    46.6640 c3         1 FOK      -0.157100
     30 H1          41.3540   -12.6910    53.0180 h1         1 FOK       0.056700
     31 HO2         41.8910   -14.8920    52.4200 ho         1 FOK       0.460000
     32 H21         43.1640   -12.6700    54.6730 hc         1 FOK       0.045700
     33 H22         42.7410   -14.3170    54.3390 hc         1 FOK       0.045700
     34 H31         45.2010   -14.0670    54.4170 hc         1 FOK       0.045200
     35 H32         44.6830   -14.6200    52.8430 hc         1 FOK       0.045200
     36 H5          44.5000   -13.0220    50.9460 hc         1 FOK       0.067700
     37 H6          46.0990   -11.5750    50.1840 h1         1 FOK       0.036700
     38 HO3         45.8440    -9.2490    50.4880 ho         1 FOK       0.452000
     39 H7          44.3470   -11.6450    48.6790 h1         1 FOK       0.106700
     40 HO6         42.2410   -13.4530    50.4130 ho         1 FOK       0.542000
     41 H121        39.4510   -11.6700    48.6970 hc         1 FOK       0.078200
     42 H122        38.6710   -10.1900    49.1940 hc         1 FOK       0.078200
     43 H14         39.6510    -9.6640    46.1800 ha         1 FOK       0.165000
     44 H151        41.2590   -12.2520    46.6920 ha         1 FOK       0.173000
     45 H152        40.3460   -11.7730    45.1480 ha         1 FOK       0.173000
     46 H161        39.5180    -8.0970    47.7640 hc         1 FOK       0.042033
     47 H162        40.3970    -8.0160    49.2540 hc         1 FOK       0.042033
     48 H163        41.2660    -7.8780    47.7030 hc         1 FOK       0.042033
     49 H171        41.8030    -8.7390    50.7070 hc         1 FOK       0.052033
     50 H172        43.5370    -8.6800    50.8860 hc         1 FOK       0.052033
     51 H173        42.8560    -8.1490    49.3980 hc         1 FOK       0.052033
     52 H181        47.4820   -12.3020    52.0050 hc         1 FOK       0.035700
     53 H182        47.3960   -13.5160    53.2860 hc         1 FOK       0.035700
     54 H183        46.7830   -13.8900    51.6700 hc         1 FOK       0.035700
     55 H191        46.3440   -10.6410    53.5500 hc         1 FOK       0.035700
     56 H192        44.8300   -11.0170    54.3710 hc         1 FOK       0.035700
     57 H193        46.2890   -11.8920    54.7780 hc         1 FOK       0.035700
     58 H201        43.5060    -9.7410    52.7400 hc         1 FOK       0.049367
     59 H202        41.7590   -10.0090    52.6070 hc         1 FOK       0.049367
     60 H203        42.6670   -10.7470    53.8780 hc         1 FOK       0.049367
     61 H221        45.7250    -8.3470    45.5710 hc         1 FOK       0.067700
     62 H222        45.1700    -7.4770    47.0660 hc         1 FOK       0.067700
     63 H223        46.6560    -8.3120    47.1270 hc         1 FOK       0.067700
@<TRIPOS>BOND
     1     1     2 1   
     2     1     3 1   
     3     1    15 1   
     4     1    30 1   
     5     2    31 1   
     6     3     4 1   
     7     3    32 1   
     8     3    33 1   
     9     4     5 1   
    10     4    34 1   
    11     4    35 1   
    12     5     6 1   
    13     5    24 1   
    14     5    25 1   
    15     6     7 1   
    16     6    15 1   
    17     6    36 1   
    18     7     8 1   
    19     7     9 1   
    20     7    37 1   
    21     8    38 1   
    22     9    10 1   
    23     9    11 1   
    24     9    39 1   
    25    10    27 1   
    26    11    12 1   
    27    11    13 1   
    28    11    23 1   
    29    12    19 1   
    30    13    14 1   
    31    13    15 1   
    32    13    16 1   
    33    14    40 1   
    34    15    26 1   
    35    16    17 2   
    36    16    18 1   
    37    18    19 1   
    38    18    41 1   
    39    18    42 1   
    40    19    20 1   
    41    19    22 1   
    42    20    21 2   
    43    20    43 1   
    44    21    44 1   
    45    21    45 1   
    46    22    46 1   
    47    22    47 1   
    48    22    48 1   
    49    23    49 1   
    50    23    50 1   
    51    23    51 1   
    52    24    52 1   
    53    24    53 1   
    54    24    54 1   
    55    25    55 1   
    56    25    56 1   
    57    25    57 1   
    58    26    58 1   
    59    26    59 1   
    60    26    60 1   
    61    27    28 2   
    62    27    29 1   
    63    29    61 1   
    64    29    62 1   
    65    29    63 1   
@<TRIPOS>SUBSTRUCTURE
     1 FOK         1 TEMP              0 ****  ****    0 ROOT
