@<TRIPOS>MOLECULE
FOM
   19    19     1     0     0
SMALL
abcg2


@<TRIPOS>ATOM
      1 O2           7.3700    -5.7630    34.6400 oh         1 FOM      -0.422000
      2 N1           7.0540    -4.6050    35.3160 n          1 FOM      -0.167000
      3 C1           5.9280    -3.9670    35.0080 c2         1 FOM       0.236000
      4 O1           5.1150    -4.2930    34.1310 o          1 FOM      -0.463000
      5 C2           7.9340    -4.2000    36.4010 c3         1 FOM      -0.016000
      6 C3           7.9730    -5.1930    37.5830 c3         1 FOM      -0.120000
      7 C4           9.3430    -5.8460    37.8090 c3         1 FOM      -0.753000
      8 PA1          9.8110    -7.1530    36.5960 p5         1 FOM       1.901000
      9 OP1          8.8360    -8.3080    36.7840 o          1 FOM      -0.903500
     10 OP2          9.6280    -6.4720    35.1920 oh         1 FOM      -1.106000
     11 OP3         11.2750    -7.4820    36.8410 o          1 FOM      -0.903500
     12 HO2          8.4260    -6.0750    34.9210 DU         1 FOM       0.327000
     13 H1           5.7850    -3.0790    35.6390 h5         1 FOM       0.033000
     14 H21          8.9370    -4.0630    35.9900 h1         1 FOM       0.065500
     15 H22          7.5770    -3.2240    36.7290 h1         1 FOM       0.065500
     16 H31          7.6730    -4.6550    38.4860 hc         1 FOM       0.055500
     17 H32          7.2180    -5.9660    37.4210 hc         1 FOM       0.055500
     18 H41         10.1200    -5.0740    37.8030 hc         1 FOM       0.056500
     19 H42          9.3690    -6.3070    38.8000 hc         1 FOM       0.056500
@<TRIPOS>BOND
     1     1     2 1   
     2     1    12 1   
     3     2     3 1   
     4     2     5 1   
     5     3     4 1   
     6     3    13 1   
     7     5     6 1   
     8     5    14 1   
     9     5    15 1   
    10     6     7 1   
    11     6    16 1   
    12     6    17 1   
    13     7     8 1   
    14     7    18 1   
    15     7    19 1   
    16     8     9 1   
    17     8    10 1   
    18     8    11 1   
    19    10    12 1   
@<TRIPOS>SUBSTRUCTURE
     1 FOM         1 TEMP              0 ****  ****    0 ROOT
