@<TRIPOS>MOLECULE
FON
   55    57     1     0     0
SMALL
No Charge or Current Charge


@<TRIPOS>ATOM
      1 N1           1.4460     1.8680     6.3070 na         1 FON      -0.808200
      2 C2           2.3370     1.0030     6.7920 cc         1 FON       0.884100
      3 NA2          3.3590     1.4930     7.4320 nv         1 FON      -1.048200
      4 N3           2.2470    -0.2520     6.5680 nd         1 FON      -0.755100
      5 C4           1.1820    -0.7850     5.8720 c          1 FON       0.744700
      6 O4           1.2000    -1.9870     5.6600 o          1 FON      -0.547100
      7 C4A          0.1200     0.1470     5.4190 cc         1 FON      -0.233600
      8 N5          -1.0500    -0.2580     4.7040 n          1 FON      -0.291000
      9 C6          -1.8300     0.7850     3.9520 c6         1 FON       0.066700
     10 C7          -1.8420     2.1450     4.7100 c6         1 FON       0.224800
     11 N8          -0.5090     2.4740     5.2480 nu         1 FON      -0.854200
     12 C8A          0.3230     1.4890     5.6450 cd         1 FON       0.365000
     13 C9          -1.3070     0.9770     2.4950 c3         1 FON       0.238800
     14 N10         -1.5130    -0.2340     1.6780 nu         1 FON      -0.984200
     15 C11         -0.2790    -0.9910    -2.2920 ca         1 FON      -0.154600
     16 C12         -0.8110    -2.0170    -1.4790 ca         1 FON      -0.032500
     17 C13         -1.2170    -1.7500    -0.1600 ca         1 FON      -0.211000
     18 C14         -1.1010    -0.4610     0.3700 ca         1 FON       0.323000
     19 C15         -0.5770     0.5690    -0.4260 ca         1 FON      -0.211000
     20 C16         -0.1680     0.3120    -1.7470 ca         1 FON      -0.032500
     21 O            0.0420    -2.4410    -4.1770 o          1 FON      -0.640100
     22 N            0.6740    -0.2700    -4.4490 ns         1 FON      -0.426900
     23 CA           1.1180    -0.3440    -5.8630 c3         1 FON      -0.048300
     24 CB           0.0310     0.1650    -6.8470 c3         1 FON      -0.056400
     25 CG          -1.2870    -0.6540    -6.8430 c3         1 FON      -0.199400
     26 CD          -2.2410    -0.1300    -7.9330 c          1 FON       0.712000
     27 OE1         -3.0100     0.7740    -7.6430 o          1 FON      -0.762500
     28 OE2         -2.1540    -0.6050    -9.0550 o          1 FON      -0.762500
     29 CT           2.4540     0.4400    -6.0450 c          1 FON       0.718000
     30 O1           3.4040    -0.1450    -6.5460 o          1 FON      -0.743500
     31 O2           2.5310     1.5770    -5.5970 o          1 FON      -0.743500
     32 CP1         -1.5250    -1.5980     4.6620 c          1 FON       0.626900
     33 O3          -2.4230    -1.9610     3.9040 o          1 FON      -0.624100
     34 HN1          1.6500     2.8430     6.4300 hn         1 FON       0.493000
     35 HN21         3.9150     0.7640     7.8580 hn         1 FON       0.495000
     36 HN22         3.1500     2.2660     8.0470 hn         1 FON       0.495000
     37 H61         -2.8810     0.4740     3.8720 h1         1 FON       0.089700
     38 H7          -2.5560     2.0680     5.5440 h1         1 FON       0.048200
     39 HC72        -2.2090     2.9440     4.0490 h1         1 FON       0.048200
     40 HN8         -0.3540     3.3960     5.6520 hn         1 FON       0.489000
     41 H91         -1.8370     1.8230     2.0360 h1         1 FON       0.037700
     42 H92         -0.2380     1.2290     2.5360 h1         1 FON       0.037700
     43 HN0         -1.8830    -1.0500     2.1790 hn         1 FON       0.484000
     44 H12         -0.9110    -3.0290    -1.8670 ha         1 FON       0.127500
     45 H13         -1.6220    -2.5540     0.4480 ha         1 FON       0.094000
     46 H15         -0.4830     1.5760    -0.0320 ha         1 FON       0.094000
     47 H16          0.2310     1.1380    -2.3300 ha         1 FON       0.127500
     48 HN           0.7590     0.6220    -3.9810 hn         1 FON       0.296500
     49 HA           1.3340    -1.3930    -6.1050 h1         1 FON       0.054700
     50 HB1         -0.1960     1.2150    -6.6240 hc         1 FON       0.049700
     51 HB2          0.4500     0.1470    -7.8610 hc         1 FON       0.049700
     52 HG1         -0.9950    -1.6910    -7.0540 hc         1 FON       0.008700
     53 HG2         -1.7300    -0.5140    -5.8490 hc         1 FON       0.008700
     54 HCP1        -1.0430    -2.2820     5.3780 h5         1 FON       0.040200
     55 C            0.1480    -1.3130    -3.7110 c          1 FON       0.600700
@<TRIPOS>BOND
     1     1     2 1   
     2     1    12 1   
     3     1    34 1   
     4     2     3 1   
     5     2     4 2   
     6     3    35 1   
     7     3    36 1   
     8     4     5 1   
     9     5     6 2   
    10     5     7 1   
    11     7     8 1   
    12     7    12 2   
    13     8     9 1   
    14     8    32 1   
    15     9    10 1   
    16     9    13 1   
    17     9    37 1   
    18    10    11 1   
    19    10    38 1   
    20    10    39 1   
    21    11    12 1   
    22    11    40 1   
    23    13    14 1   
    24    13    41 1   
    25    13    42 1   
    26    14    18 1   
    27    14    43 1   
    28    15    16 ar  
    29    15    20 ar  
    30    15    55 1   
    31    16    17 ar  
    32    16    44 1   
    33    17    18 ar  
    34    17    45 1   
    35    18    19 ar  
    36    19    20 ar  
    37    19    46 1   
    38    20    47 1   
    39    21    55 2   
    40    22    23 1   
    41    22    48 1   
    42    22    55 1   
    43    23    24 1   
    44    23    29 1   
    45    23    49 1   
    46    24    25 1   
    47    24    50 1   
    48    24    51 1   
    49    25    26 1   
    50    25    52 1   
    51    25    53 1   
    52    26    27 1   
    53    26    28 1   
    54    29    30 1   
    55    29    31 1   
    56    32    33 2   
    57    32    54 1   
@<TRIPOS>SUBSTRUCTURE
     1 FON         1 TEMP              0 ****  ****    0 ROOT
