@<TRIPOS>MOLECULE
FON
   55    57     1     0     0
SMALL
abcg2


@<TRIPOS>ATOM
      1 N1           0.7320     2.5830     4.8570 na         1 FON      -0.808200
      2 C2           2.0450     2.2910     4.6440 cc         1 FON       0.884100
      3 NA2          2.8900     3.3340     4.6290 nv         1 FON      -1.048200
      4 N3           2.4760     1.0860     4.4220 nd         1 FON      -0.755100
      5 C4           1.6030     0.0250     4.3970 c          1 FON       0.744700
      6 O4           2.0100    -1.0990     4.1060 o          1 FON      -0.547100
      7 C4A          0.2280     0.2870     4.7480 cc         1 FON      -0.233600
      8 N5          -0.7630    -0.7180     4.7330 n          1 FON      -0.291000
      9 C6          -2.0620    -0.3110     4.2210 c6         1 FON       0.066700
     10 C7          -2.5160     0.9070     5.0240 c6         1 FON       0.224800
     11 N8          -1.4860     1.9210     5.0150 nu         1 FON      -0.854200
     12 C8A         -0.1960     1.5820     4.9010 cd         1 FON       0.365000
     13 C9          -2.0130    -0.0520     2.7200 c3         1 FON       0.238800
     14 N10         -1.6460    -1.2590     2.0320 nu         1 FON      -0.984200
     15 C11         -0.5900    -1.5250    -2.0130 ca         1 FON      -0.154600
     16 C12         -0.7460    -2.6640    -1.2160 ca         1 FON      -0.032500
     17 C13         -1.0910    -2.5710     0.1130 ca         1 FON      -0.211000
     18 C14         -1.3210    -1.3200     0.7160 ca         1 FON       0.323000
     19 C15         -1.1950    -0.1750    -0.0880 ca         1 FON      -0.211000
     20 C16         -0.8300    -0.2880    -1.4180 ca         1 FON      -0.032500
     21 O           -0.4270    -2.7570    -4.0280 o          1 FON      -0.640100
     22 N            0.2800    -0.6180    -4.0680 ns         1 FON      -0.426900
     23 CA           0.7660    -0.6840    -5.4280 c3         1 FON      -0.048300
     24 CB           0.9970     0.7320    -5.9570 c3         1 FON      -0.056400
     25 CG          -0.2670     1.5770    -6.0130 c3         1 FON      -0.199400
     26 CD          -0.0980     2.9820    -6.6170 c          1 FON       0.712000
     27 OE1          1.0610     3.4280    -6.7370 o          1 FON      -0.762500
     28 OE2         -1.1520     3.5800    -6.9200 o          1 FON      -0.762500
     29 CT           2.0630    -1.5210    -5.5630 c          1 FON       0.718000
     30 O1           2.3470    -1.8700    -6.7280 o          1 FON      -0.743500
     31 O2           2.7230    -1.7390    -4.5320 o          1 FON      -0.743500
     32 CP1         -0.5600    -1.9400     5.2620 c          1 FON       0.626900
     33 O3          -1.3580    -2.8620     5.2050 o          1 FON      -0.624100
     34 HN1          0.4310     3.5430     4.9410 hn         1 FON       0.493000
     35 HN21         3.8740     3.1260     4.6200 hn         1 FON       0.495000
     36 HN22         2.6280     4.2170     5.0340 hn         1 FON       0.495000
     37 H61         -2.7730    -1.1120     4.4200 h1         1 FON       0.089700
     38 H7          -2.7460     0.5870     6.0440 h1         1 FON       0.048200
     39 HC72        -3.4260     1.3280     4.5980 h1         1 FON       0.048200
     40 HN8         -1.7440     2.8770     5.1980 hn         1 FON       0.489000
     41 H91         -2.9910     0.3280     2.4010 h1         1 FON       0.037700
     42 H92         -1.2810     0.7300     2.5000 h1         1 FON       0.037700
     43 HN0         -1.8850    -2.1300     2.4780 hn         1 FON       0.484000
     44 H12         -0.5830    -3.6430    -1.6470 ha         1 FON       0.127500
     45 H13         -1.1910    -3.4730     0.7060 ha         1 FON       0.094000
     46 H15         -1.3980     0.8080     0.3140 ha         1 FON       0.094000
     47 H16         -0.7710     0.6240    -1.9990 ha         1 FON       0.127500
     48 HN           0.6440     0.1290    -3.4980 hn         1 FON       0.296500
     49 HA          -0.0070    -1.1550    -6.0420 h1         1 FON       0.054700
     50 HB1          1.7560     1.2280    -5.3430 hc         1 FON       0.049700
     51 HB2          1.4250     0.6440    -6.9570 hc         1 FON       0.049700
     52 HG1         -1.0410     1.0420    -6.5730 hc         1 FON       0.008700
     53 HG2         -0.6810     1.7000    -5.0050 hc         1 FON       0.008700
     54 HCP1         0.4080    -2.0320     5.7670 h5         1 FON       0.040200
     55 C           -0.2310    -1.6940    -3.4450 c          1 FON       0.600700
@<TRIPOS>BOND
     1     1     2 1   
     2     1    12 1   
     3     1    34 1   
     4     2     3 1   
     5     2     4 2   
     6     3    35 1   
     7     3    36 1   
     8     4     5 1   
     9     5     6 2   
    10     5     7 1   
    11     7     8 1   
    12     7    12 2   
    13     8     9 1   
    14     8    32 1   
    15     9    10 1   
    16     9    13 1   
    17     9    37 1   
    18    10    11 1   
    19    10    38 1   
    20    10    39 1   
    21    11    12 1   
    22    11    40 1   
    23    13    14 1   
    24    13    41 1   
    25    13    42 1   
    26    14    18 1   
    27    14    43 1   
    28    15    16 ar  
    29    15    20 ar  
    30    15    55 1   
    31    16    17 ar  
    32    16    44 1   
    33    17    18 ar  
    34    17    45 1   
    35    18    19 ar  
    36    19    20 ar  
    37    19    46 1   
    38    20    47 1   
    39    21    55 2   
    40    22    23 1   
    41    22    48 1   
    42    22    55 1   
    43    23    24 1   
    44    23    29 1   
    45    23    49 1   
    46    24    25 1   
    47    24    50 1   
    48    24    51 1   
    49    25    26 1   
    50    25    52 1   
    51    25    53 1   
    52    26    27 1   
    53    26    28 1   
    54    29    30 1   
    55    29    31 1   
    56    32    33 2   
    57    32    54 1   
@<TRIPOS>SUBSTRUCTURE
     1 FON         1 TEMP              0 ****  ****    0 ROOT
