@<TRIPOS>MOLECULE
FOP
   15    14     1     0     0
SMALL
No Charge or Current Charge


@<TRIPOS>ATOM
      1 N4          -2.0370    -0.0210     0.1250 nz         1 FOP      -0.968000
      2 C5          -0.7460    -0.7200    -0.2580 c3         1 FOP       0.052600
      3 C6           0.4930    -0.0130     0.3430 c3         1 FOP       0.149300
      4 C7           1.8070    -0.7300    -0.0160 c3         1 FOP      -0.131100
      5 O7           0.5470     1.3330    -0.1500 oh         1 FOP      -0.654000
      6 H41         -2.2430    -0.0560     1.1350 hn         1 FOP       0.516667
      7 H42         -2.0210     0.9840    -0.1130 hn         1 FOP       0.516667
      8 H43         -2.8730    -0.4070    -0.3430 hn         1 FOP       0.516667
      9 H51         -0.6540    -0.7380    -1.3490 hx         1 FOP       0.109700
     10 H52         -0.7760    -1.7560     0.0980 hx         1 FOP       0.109700
     11 H6           0.3910    -0.0110     1.4380 h1         1 FOP       0.096700
     12 H71          2.6660    -0.2050     0.4190 hc         1 FOP       0.072700
     13 H72          1.8030    -1.7530     0.3790 hc         1 FOP       0.072700
     14 H73          1.9480    -0.7860    -1.1020 hc         1 FOP       0.072700
     15 HO7          0.8940     1.2990    -1.0700 ho         1 FOP       0.467000
@<TRIPOS>BOND
     1     1     2 1   
     2     1     6 1   
     3     1     7 1   
     4     1     8 1   
     5     2     3 1   
     6     2     9 1   
     7     2    10 1   
     8     3     4 1   
     9     3     5 1   
    10     3    11 1   
    11     4    12 1   
    12     4    13 1   
    13     4    14 1   
    14     5    15 1   
@<TRIPOS>SUBSTRUCTURE
     1 FOP         1 TEMP              0 ****  ****    0 ROOT
