@<TRIPOS>MOLECULE
FOP
   15    14     1     0     0
SMALL
bcc


@<TRIPOS>ATOM
      1 N4          -1.9650    -0.0130     0.0970 nz         1 FOP      -0.830600
      2 C5          -0.7150    -0.7400    -0.2390 c3         1 FOP       0.080800
      3 C6           0.4910    -0.0100     0.3370 c3         1 FOP       0.126100
      4 C7           1.7700    -0.7410    -0.0290 c3         1 FOP      -0.131100
      5 O7           0.4900     1.3410    -0.0740 oh         1 FOP      -0.591800
      6 H41         -2.1590    -0.0270     1.0980 hn         1 FOP       0.461467
      7 H42         -1.9060     0.9650    -0.1880 hn         1 FOP       0.461467
      8 H43         -2.7750    -0.4190    -0.3690 hn         1 FOP       0.461467
      9 H51         -0.6630    -0.7990    -1.3250 hx         1 FOP       0.109700
     10 H52         -0.8050    -1.7460     0.1640 hx         1 FOP       0.109700
     11 H6           0.3940     0.0130     1.4260 h1         1 FOP       0.096700
     12 H71          2.6330    -0.2380     0.4060 hc         1 FOP       0.072700
     13 H72          1.7540    -1.7640     0.3450 hc         1 FOP       0.072700
     14 H73          1.9070    -0.7820    -1.1120 hc         1 FOP       0.072700
     15 HO7          0.7480     1.3820    -1.0020 ho         1 FOP       0.428000
@<TRIPOS>BOND
     1     1     2 1   
     2     1     6 1   
     3     1     7 1   
     4     1     8 1   
     5     2     3 1   
     6     2     9 1   
     7     2    10 1   
     8     3     4 1   
     9     3     5 1   
    10     3    11 1   
    11     4    12 1   
    12     4    13 1   
    13     4    14 1   
    14     5    15 1   
@<TRIPOS>SUBSTRUCTURE
     1 FOP         1 TEMP              0 ****  ****    0 ROOT
