@<TRIPOS>MOLECULE
FOQ
   31    31     1     0     0
SMALL
abcg2


@<TRIPOS>ATOM
      1 CH3          5.0110     0.0540     0.9270 c3         1 FOQ      -0.168100
      2 O2           3.6280     1.2530    -1.0360 oh         1 FOQ      -0.439100
      3 N1           3.0870     0.0820    -0.5660 n          1 FOQ      -0.275300
      4 C1           3.6610    -0.4810     0.5240 c          1 FOQ       0.598100
      5 O1           3.1100    -1.3960     1.1210 o          1 FOQ      -0.594100
      6 C2           1.7180    -0.1670    -0.9690 c3         1 FOQ       0.086000
      7 C3           0.7080     0.7480    -0.2860 c3         1 FOQ      -0.053400
      8 C4          -0.7290     0.4730    -0.7130 c3         1 FOQ      -0.315400
      9 PA1         -1.9090     1.7250     0.1010 p5         1 FOQ       1.269500
     10 OP1         -1.3780     3.0840    -0.3690 o          1 FOQ      -0.909500
     11 OP2         -3.2910     1.3720    -0.4540 o          1 FOQ      -0.909500
     12 OP3         -1.7460     1.4750     1.6020 o          1 FOQ      -0.909500
     13 CG          -1.2180    -0.8940    -0.4070 ca         1 FOQ       0.074700
     14 CD1         -2.1850    -1.5060    -1.2060 ca         1 FOQ      -0.157500
     15 CD2         -0.8100    -1.6200     0.7140 ca         1 FOQ      -0.157500
     16 CE1         -2.6640    -2.7610    -0.8770 ca         1 FOQ       0.299900
     17 CE2         -1.3500    -2.8720     0.9590 ca         1 FOQ       0.299900
     18 NZ          -2.2640    -3.4530     0.1880 nb         1 FOQ      -0.754000
     19 H1           4.9390     1.0830     1.2800 hc         1 FOQ       0.047700
     20 H2           5.4050    -0.5600     1.7330 hc         1 FOQ       0.047700
     21 H3           5.7200     0.0440     0.1000 hc         1 FOQ       0.047700
     22 H4           4.0910     1.0240    -1.8530 ho         1 FOQ       0.419000
     23 H5           1.6630    -0.0550    -2.0550 h1         1 FOQ       0.047700
     24 H6           1.5040    -1.2120    -0.7510 h1         1 FOQ       0.047700
     25 H7           0.8020     0.6560     0.7990 hc         1 FOQ       0.065700
     26 H8           0.9340     1.7880    -0.5250 hc         1 FOQ       0.065700
     27 H9          -0.8150     0.6350    -1.7940 hc         1 FOQ       0.039700
     28 H12         -2.5600    -1.0040    -2.0880 ha         1 FOQ       0.123000
     29 H13         -0.0580    -1.2300     1.3860 ha         1 FOQ       0.123000
     30 H14         -3.4110    -3.2350    -1.5070 h4         1 FOQ      -0.028900
     31 H15         -1.0230    -3.4360     1.8260 h4         1 FOQ      -0.028900
@<TRIPOS>BOND
     1     1     4 1   
     2     1    19 1   
     3     1    20 1   
     4     1    21 1   
     5     2     3 1   
     6     2    22 1   
     7     3     4 1   
     8     3     6 1   
     9     4     5 2   
    10     6     7 1   
    11     6    23 1   
    12     6    24 1   
    13     7     8 1   
    14     7    25 1   
    15     7    26 1   
    16     8     9 1   
    17     8    13 1   
    18     8    27 1   
    19     9    10 1   
    20     9    11 1   
    21     9    12 1   
    22    13    14 ar  
    23    13    15 ar  
    24    14    16 ar  
    25    14    28 1   
    26    15    17 ar  
    27    15    29 1   
    28    16    18 ar  
    29    16    30 1   
    30    17    18 ar  
    31    17    31 1   
@<TRIPOS>SUBSTRUCTURE
     1 FOQ         1 TEMP              0 ****  ****    0 ROOT
