@<TRIPOS>MOLECULE
FOQ
   31    31     1     0     0
SMALL
No Charge or Current Charge


@<TRIPOS>ATOM
      1 CH3          5.1940    -0.1630     0.7720 c3         1 FOQ      -0.168100
      2 O2           3.6580     1.2840    -1.2000 oh         1 FOQ      -0.439100
      3 N1           3.0330     0.1840    -0.5050 n          1 FOQ      -0.275300
      4 C1           3.7440    -0.5620     0.4780 c          1 FOQ       0.598100
      5 O1           3.2210    -1.4940     1.0770 o          1 FOQ      -0.594100
      6 C2           1.6300    -0.0960    -0.8790 c3         1 FOQ       0.086000
      7 C3           0.6210     0.8380    -0.1740 c3         1 FOQ      -0.053400
      8 C4          -0.8590     0.5810    -0.5790 c3         1 FOQ      -0.315400
      9 PA1         -2.0160     1.8180     0.1670 p5         1 FOQ       1.269500
     10 OP1         -1.6550     3.1720    -0.3430 o          1 FOQ      -0.909500
     11 OP2         -3.4100     1.4800    -0.2400 o          1 FOQ      -0.909500
     12 OP3         -1.8880     1.7810     1.6520 o          1 FOQ      -0.909500
     13 CG          -1.3010    -0.8590    -0.3260 ca         1 FOQ       0.074700
     14 CD1         -1.8430    -1.6350    -1.3660 ca         1 FOQ      -0.157500
     15 CD2         -1.1610    -1.4700     0.9330 ca         1 FOQ      -0.157500
     16 CE1         -2.2220    -2.9630    -1.1090 ca         1 FOQ       0.299900
     17 CE2         -1.5660    -2.8030     1.1010 ca         1 FOQ       0.299900
     18 NZ          -2.0900    -3.5490     0.1020 nb         1 FOQ      -0.754000
     19 H1           5.2270     0.8990     1.0390 hc         1 FOQ       0.047700
     20 H2           5.6550    -0.7860     1.5460 hc         1 FOQ       0.047700
     21 H3           5.7700    -0.1890    -0.1600 hc         1 FOQ       0.047700
     22 H4           4.0610     0.8850    -2.0040 ho         1 FOQ       0.419000
     23 H5           1.5270     0.0230    -1.9660 h1         1 FOQ       0.047700
     24 H6           1.3920    -1.1410    -0.6430 h1         1 FOQ       0.047700
     25 H7           0.7350     0.7340     0.9110 hc         1 FOQ       0.065700
     26 H8           0.8820     1.8760    -0.4130 hc         1 FOQ       0.065700
     27 H9          -0.9380     0.7930    -1.6510 hc         1 FOQ       0.039700
     28 H12         -1.9720    -1.2230    -2.3610 ha         1 FOQ       0.123000
     29 H13         -0.7490    -0.9250     1.7760 ha         1 FOQ       0.123000
     30 H14         -2.6450    -3.5810    -1.9000 h4         1 FOQ      -0.028900
     31 H15         -1.4680    -3.2950     2.0680 h4         1 FOQ      -0.028900
@<TRIPOS>BOND
     1     1     4 1   
     2     1    19 1   
     3     1    20 1   
     4     1    21 1   
     5     2     3 1   
     6     2    22 1   
     7     3     4 1   
     8     3     6 1   
     9     4     5 2   
    10     6     7 1   
    11     6    23 1   
    12     6    24 1   
    13     7     8 1   
    14     7    25 1   
    15     7    26 1   
    16     8     9 1   
    17     8    13 1   
    18     8    27 1   
    19     9    10 1   
    20     9    11 1   
    21     9    12 1   
    22    13    14 ar  
    23    13    15 ar  
    24    14    16 ar  
    25    14    28 1   
    26    15    17 ar  
    27    15    29 1   
    28    16    18 ar  
    29    16    30 1   
    30    17    18 ar  
    31    17    31 1   
@<TRIPOS>SUBSTRUCTURE
     1 FOQ         1 TEMP              0 ****  ****    0 ROOT
