@<TRIPOS>MOLECULE
FOR
    4     3     1     0     0
SMALL
bcc


@<TRIPOS>ATOM
      1 C           19.5140    51.8080    16.0350 c          1 FOR       0.574700
      2 O           20.0400    52.8880    16.0630 o          1 FOR      -0.507100
      3 H1          20.0920    50.8700    16.0220 h4         1 FOR      -0.033800
      4 H2          18.4200    51.6860    16.0220 h4         1 FOR      -0.033800
@<TRIPOS>BOND
     1     1     2 2   
     2     1     3 1   
     3     1     4 1   
@<TRIPOS>SUBSTRUCTURE
     1 FOR         1 TEMP              0 ****  ****    0 ROOT
