@<TRIPOS>MOLECULE
FOR
    4     3     1     0     0
SMALL
No Charge or Current Charge


@<TRIPOS>ATOM
      1 C           19.5090    51.7980    16.0350 c          1 FOR       0.574700
      2 O           20.0470    52.9020    16.0630 o          1 FOR      -0.507100
      3 H1          20.1070    50.8600    16.0220 h4         1 FOR      -0.033800
      4 H2          18.4020    51.6920    16.0220 h4         1 FOR      -0.033800
@<TRIPOS>BOND
     1     1     2 2   
     2     1     3 1   
     3     1     4 1   
@<TRIPOS>SUBSTRUCTURE
     1 FOR         1 TEMP              0 ****  ****    0 ROOT
