@<TRIPOS>MOLECULE
FOS
   26    26     1     0     0
SMALL
No Charge or Current Charge


@<TRIPOS>ATOM
      1 C1          -0.3600    -0.3550    -3.2840 ca         1 FOS      -0.059300
      2 C2           0.7890    -1.0400    -3.7300 ca         1 FOS      -0.089000
      3 C3           1.4860    -0.5900    -4.8650 ca         1 FOS      -0.126500
      4 C4           1.0410     0.5470    -5.5600 ca         1 FOS      -0.128000
      5 C5          -0.1020     1.2340    -5.1190 ca         1 FOS      -0.126500
      6 C6          -0.8010     0.7850    -3.9840 ca         1 FOS      -0.089000
      7 C           -1.1190    -0.8450    -2.0560 c3         1 FOS       0.228900
      8 O           -0.5730    -0.2020    -0.8920 os         1 FOS      -0.476100
      9 C7          -1.1240    -0.5110     0.3140 c          1 FOS       0.616100
     10 O4          -2.0480    -1.2900     0.4970 o          1 FOS      -0.593000
     11 N           -0.4770     0.1970     1.2930 ns         1 FOS      -0.404900
     12 CM          -0.7810     0.1370     2.7450 c3         1 FOS      -0.223000
     13 P            0.4810     0.9490     3.8560 p5         1 FOS       1.281500
     14 O1P          1.7260     0.1270     3.8540 o          1 FOS      -0.926167
     15 O2P         -0.0760     1.0370     5.2370 o          1 FOS      -0.926167
     16 O3P          0.7710     2.3150     3.3300 o          1 FOS      -0.926167
     17 H2           1.1410    -1.9190    -3.1950 ha         1 FOS       0.119000
     18 H3           2.3720    -1.1220    -5.2040 ha         1 FOS       0.095000
     19 H4           1.5810     0.8950    -6.4370 ha         1 FOS       0.089000
     20 H5          -0.4470     2.1150    -5.6560 ha         1 FOS       0.095000
     21 H6          -1.6840     1.3240    -3.6480 ha         1 FOS       0.119000
     22 H1          -1.0230    -1.9360    -1.9780 h1         1 FOS       0.042200
     23 H2A         -2.1850    -0.6060    -2.1670 h1         1 FOS       0.042200
     24 HN           0.2710     0.8040     0.9760 hn         1 FOS       0.315500
     25 HM1         -0.8660    -0.9130     3.0480 h1         1 FOS       0.024200
     26 HM2         -1.7460     0.6280     2.9190 h1         1 FOS       0.024200
@<TRIPOS>BOND
     1     1     2 ar  
     2     1     6 ar  
     3     1     7 1   
     4     2     3 ar  
     5     2    17 1   
     6     3     4 ar  
     7     3    18 1   
     8     4     5 ar  
     9     4    19 1   
    10     5     6 ar  
    11     5    20 1   
    12     6    21 1   
    13     7     8 1   
    14     7    22 1   
    15     7    23 1   
    16     8     9 1   
    17     9    10 2   
    18     9    11 1   
    19    11    12 1   
    20    11    24 1   
    21    12    13 1   
    22    12    25 1   
    23    12    26 1   
    24    13    14 1   
    25    13    15 1   
    26    13    16 1   
@<TRIPOS>SUBSTRUCTURE
     1 FOS         1 TEMP              0 ****  ****    0 ROOT
