@<TRIPOS>MOLECULE
FOS
   26    26     1     0     0
SMALL
bcc


@<TRIPOS>ATOM
      1 C1          -0.1610    -0.4660    -3.1320 ca         1 FOS      -0.059300
      2 C2           1.0360    -0.9380    -3.6580 ca         1 FOS      -0.107000
      3 C3           1.5460    -0.4100    -4.8390 ca         1 FOS      -0.144500
      4 C4           0.8630     0.6000    -5.5000 ca         1 FOS      -0.146000
      5 C5          -0.3340     1.0800    -4.9800 ca         1 FOS      -0.144500
      6 C6          -0.8410     0.5490    -3.8030 ca         1 FOS      -0.107000
      7 C           -0.7150    -1.0220    -1.8540 c3         1 FOS       0.205700
      8 O           -0.4620    -0.0590    -0.8320 os         1 FOS      -0.452900
      9 C7          -1.0630    -0.2590     0.3580 c          1 FOS       0.732100
     10 O4          -1.7470    -1.2390     0.5950 o          1 FOS      -0.642000
     11 N           -0.8390     0.7690     1.1830 ns         1 FOS      -0.471900
     12 CM          -1.0890     0.7050     2.6130 c3         1 FOS      -0.065200
     13 P            0.4900     0.3780     3.5550 p5         1 FOS       1.123700
     14 O1P          0.9600    -0.9970     3.0680 o          1 FOS      -0.926167
     15 O2P          0.0650     0.4200     5.0270 o          1 FOS      -0.926167
     16 O3P          1.4100     1.5320     3.1280 o          1 FOS      -0.926167
     17 H2           1.5750    -1.7250    -3.1450 ha         1 FOS       0.137000
     18 H3           2.4780    -0.7890    -5.2390 ha         1 FOS       0.113000
     19 H4           1.2570     1.0110    -6.4210 ha         1 FOS       0.107000
     20 H5          -0.8740     1.8640    -5.4940 ha         1 FOS       0.113000
     21 H6          -1.7790     0.9210    -3.4070 ha         1 FOS       0.137000
     22 H1          -0.2390    -1.9740    -1.6080 h1         1 FOS       0.042200
     23 H2A         -1.7880    -1.2000    -1.9530 h1         1 FOS       0.042200
     24 HN          -0.1280     1.4290     0.9080 hn         1 FOS       0.315500
     25 HM1         -1.8360    -0.0670     2.7990 h1         1 FOS       0.024200
     26 HM2         -1.5380     1.6540     2.9240 h1         1 FOS       0.024200
@<TRIPOS>BOND
     1     1     2 ar  
     2     1     6 ar  
     3     1     7 1   
     4     2     3 ar  
     5     2    17 1   
     6     3     4 ar  
     7     3    18 1   
     8     4     5 ar  
     9     4    19 1   
    10     5     6 ar  
    11     5    20 1   
    12     6    21 1   
    13     7     8 1   
    14     7    22 1   
    15     7    23 1   
    16     8     9 1   
    17     9    10 2   
    18     9    11 1   
    19    11    12 1   
    20    11    24 1   
    21    12    13 1   
    22    12    25 1   
    23    12    26 1   
    24    13    14 1   
    25    13    15 1   
    26    13    16 1   
@<TRIPOS>SUBSTRUCTURE
     1 FOS         1 TEMP              0 ****  ****    0 ROOT
