@<TRIPOS>MOLECULE
FOT
   14    14     1     0     0
SMALL
No Charge or Current Charge


@<TRIPOS>ATOM
      1 C2          -1.5270    -1.3150     0.0270 c          1 FOT       0.607000
      2 C6          -1.4740     1.1300     0.0060 c          1 FOT       0.563200
      3 C5           0.0110     1.0570    -0.0020 cc         1 FOT      -0.062700
      4 O2          -2.1730    -2.3430     0.0390 o          1 FOT      -0.604000
      5 N3          -0.1660    -1.3030     0.0180 ns         1 FOT      -0.487600
      6 N1          -2.0980    -0.0840     0.0200 ns         1 FOT      -0.472500
      7 O6          -2.1230     2.1670     0.0020 o          1 FOT      -0.563000
      8 F5           0.6750     2.2280    -0.0160 f          1 FOT      -0.137500
      9 C4           0.6570    -0.1730     0.0040 cd         1 FOT      -0.021600
     10 C41          2.1610    -0.3510    -0.0040 c          1 FOT       0.725200
     11 O42          2.9050     0.6210    -0.0170 o          1 FOT      -0.678500
     12 O41          2.5870    -1.4990     0.0030 o          1 FOT      -0.678500
     13 HN3          0.2550    -2.2290     0.0230 hn         1 FOT       0.490000
     14 HN1         -3.1050    -0.0660     0.0260 hn         1 FOT       0.319500
@<TRIPOS>BOND
     1     1     4 2   
     2     1     5 1   
     3     1     6 1   
     4     2     3 1   
     5     2     6 1   
     6     2     7 2   
     7     3     8 1   
     8     3     9 2   
     9     5     9 1   
    10     5    13 1   
    11     6    14 1   
    12     9    10 1   
    13    10    11 1   
    14    10    12 1   
@<TRIPOS>SUBSTRUCTURE
     1 FOT         1 TEMP              0 ****  ****    0 ROOT
