@<TRIPOS>MOLECULE
FOT
   14    14     1     0     0
SMALL
bcc


@<TRIPOS>ATOM
      1 C2          -1.4940    -1.3260     0.0250 c          1 FOT       0.816500
      2 C6          -1.4570     1.1440     0.0060 c          1 FOT       0.705700
      3 C5          -0.0100     1.0500    -0.0040 cc         1 FOT      -0.062700
      4 O2          -2.1360    -2.3570     0.0350 o          1 FOT      -0.679500
      5 N3          -0.1360    -1.2780     0.0160 ns         1 FOT      -0.441100
      6 N1          -2.0860    -0.0830     0.0260 ns         1 FOT      -0.606500
      7 O6          -2.0820     2.1870     0.0010 o          1 FOT      -0.638500
      8 F5           0.6270     2.2210    -0.0200 f          1 FOT      -0.137500
      9 C4           0.6190    -0.1380     0.0030 cd         1 FOT      -0.021600
     10 C41          2.1370    -0.3850    -0.0020 c          1 FOT       0.935800
     11 O42          2.8640     0.6110    -0.0170 o          1 FOT      -0.783800
     12 O41          2.4460    -1.5880     0.0100 o          1 FOT      -0.783800
     13 HN3          0.3920    -2.1440     0.0180 hn         1 FOT       0.376500
     14 HN1         -3.0980    -0.0740     0.0310 hn         1 FOT       0.319500
@<TRIPOS>BOND
     1     1     4 2   
     2     1     5 1   
     3     1     6 1   
     4     2     3 1   
     5     2     6 1   
     6     2     7 2   
     7     3     8 1   
     8     3     9 2   
     9     5     9 1   
    10     5    13 1   
    11     6    14 1   
    12     9    10 1   
    13    10    11 1   
    14    10    12 1   
@<TRIPOS>SUBSTRUCTURE
     1 FOT         1 TEMP              0 ****  ****    0 ROOT
