@<TRIPOS>MOLECULE
FOU
   17    17     1     0     0
SMALL
abcg2


@<TRIPOS>ATOM
      1 O1           0.3590    -1.7740     1.0650 oh         1 FOU      -0.656500
      2 C1           0.1720    -1.3750    -0.2630 c6         1 FOU       0.318200
      3 N1          -1.1790    -1.0070    -0.5790 ns         1 FOU      -0.546900
      4 C2          -1.7530     0.1250    -0.0720 c          1 FOU       0.625000
      5 O2          -2.9660     0.2890    -0.0500 o          1 FOU      -0.589000
      6 N2          -0.8860     1.0680     0.3780 ns         1 FOU      -0.546900
      7 C3           0.5600     1.0150     0.3800 c6         1 FOU       0.318200
      8 O3           1.1090     2.1900    -0.1340 oh         1 FOU      -0.656500
      9 C4           1.0110    -0.1380    -0.5020 c6         1 FOU       0.192300
     10 F1           2.3410    -0.4000    -0.2320 f          1 FOU      -0.242000
     11 H1          -0.0660    -2.6280     1.1950 ho         1 FOU       0.456000
     12 H2           0.4640    -2.1630    -0.9640 h2         1 FOU       0.063200
     13 H3          -1.8210    -1.7430    -0.8320 hn         1 FOU       0.326000
     14 H4          -1.3110     1.8520     0.8500 hn         1 FOU       0.326000
     15 H5           0.9150     0.8460     1.4030 h2         1 FOU       0.063200
     16 H6           1.2630     2.8090     0.5860 ho         1 FOU       0.456000
     17 H7           0.9250     0.1440    -1.5550 h1         1 FOU       0.092700
@<TRIPOS>BOND
     1     1     2 1   
     2     1    11 1   
     3     2     3 1   
     4     2     9 1   
     5     2    12 1   
     6     3     4 1   
     7     3    13 1   
     8     4     5 2   
     9     4     6 1   
    10     6     7 1   
    11     6    14 1   
    12     7     8 1   
    13     7     9 1   
    14     7    15 1   
    15     8    16 1   
    16     9    10 1   
    17     9    17 1   
@<TRIPOS>SUBSTRUCTURE
     1 FOU         1 TEMP              0 ****  ****    0 ROOT
