@<TRIPOS>MOLECULE
FOU
   17    17     1     0     0
SMALL
No Charge or Current Charge


@<TRIPOS>ATOM
      1 O1           0.4970    -2.0300     0.9680 oh         1 FOU      -0.656500
      2 C1           0.2050    -1.4070    -0.2830 c6         1 FOU       0.318200
      3 N1          -1.2130    -1.0790    -0.2520 ns         1 FOU      -0.546900
      4 C2          -1.7510     0.1590    -0.0190 c          1 FOU       0.625000
      5 O2          -2.9470     0.3580    -0.0840 o          1 FOU      -0.589000
      6 N2          -0.8720     1.1560     0.3020 ns         1 FOU      -0.546900
      7 C3           0.5750     1.0260     0.3700 c6         1 FOU       0.318200
      8 O3           1.1310     2.2760    -0.0330 oh         1 FOU      -0.656500
      9 C4           1.0750    -0.1390    -0.5210 c6         1 FOU       0.192300
     10 F1           2.4390    -0.4160    -0.2400 f          1 FOU      -0.242000
     11 H1          -0.1230    -2.7860     1.0440 ho         1 FOU       0.456000
     12 H2           0.3900    -2.1200    -1.1010 h2         1 FOU       0.063200
     13 H3          -1.8770    -1.7970    -0.5110 hn         1 FOU       0.326000
     14 H4          -1.2810     2.0660     0.4630 hn         1 FOU       0.326000
     15 H5           0.8520     0.8090     1.4140 h2         1 FOU       0.063200
     16 H6           1.0350     2.8810     0.7340 ho         1 FOU       0.456000
     17 H7           1.0040     0.1530    -1.5760 h1         1 FOU       0.092700
@<TRIPOS>BOND
     1     1     2 1   
     2     1    11 1   
     3     2     3 1   
     4     2     9 1   
     5     2    12 1   
     6     3     4 1   
     7     3    13 1   
     8     4     5 2   
     9     4     6 1   
    10     6     7 1   
    11     6    14 1   
    12     7     8 1   
    13     7     9 1   
    14     7    15 1   
    15     8    16 1   
    16     9    10 1   
    17     9    17 1   
@<TRIPOS>SUBSTRUCTURE
     1 FOU         1 TEMP              0 ****  ****    0 ROOT
