@<TRIPOS>MOLECULE
FOV
   32    33     1     0     0
SMALL
No Charge or Current Charge


@<TRIPOS>ATOM
      1 O4          -0.6360    -0.6230     2.5450 o          1 FOV      -0.383000
      2 N1          -0.7000    -1.0530     1.3870 no         1 FOV       0.701200
      3 O3          -1.2190    -2.1340     1.0840 o          1 FOV      -0.383000
      4 C3           0.1500    -0.3950     0.3810 ca         1 FOV      -0.264200
      5 C2           1.5020    -0.1570     0.6940 ca         1 FOV       0.098000
      6 C4          -0.3530    -0.0490    -0.8840 ca         1 FOV       0.449000
      7 N2          -1.6890    -0.2100    -1.2430 nu         1 FOV      -0.960000
      8 C11         -2.8890     0.0880    -0.6000 ca         1 FOV       0.314000
      9 C10         -4.0800    -0.5000    -1.0510 ca         1 FOV      -0.133000
     10 C9          -5.2970    -0.2050    -0.4160 ca         1 FOV       0.168000
     11 Cl1         -6.7850    -0.9540    -0.9800 cl         1 FOV      -0.174000
     12 C12         -2.9230     0.9890     0.4740 ca         1 FOV      -0.199000
     13 C13         -4.1400     1.2820     1.1050 ca         1 FOV       0.219000
     14 F4          -4.1670     2.1490     2.1400 f          1 FOV      -0.161000
     15 C8          -5.3300     0.6860     0.6660 ca         1 FOV      -0.153000
     16 C5           0.5080     0.4910    -1.8460 ca         1 FOV      -0.216000
     17 C6           1.8590     0.7250    -1.5510 ca         1 FOV       0.071000
     18 C1           2.3550     0.4090    -0.2730 ca         1 FOV      -0.357500
     19 S1           4.0950     0.6970     0.1170 sy         1 FOV       1.030500
     20 O1           4.5850     1.7620    -0.7720 o          1 FOV      -0.464500
     21 O2           4.2130     0.8210     1.5770 o          1 FOV      -0.464500
     22 C7           4.9220    -0.8710    -0.3800 c3         1 FOV       0.143000
     23 F1           4.7470    -1.1240    -1.7000 f          1 FOV      -0.098333
     24 F2           6.2550    -0.8200    -0.1470 f          1 FOV      -0.098333
     25 F3           4.4260    -1.9290     0.3070 f          1 FOV      -0.098333
     26 H1           1.8880    -0.4290     1.6780 ha         1 FOV       0.173000
     27 H2          -1.8050    -0.4980    -2.2150 hn         1 FOV       0.512000
     28 H3          -4.0650    -1.1930    -1.8860 ha         1 FOV       0.143000
     29 H4          -2.0160     1.4760     0.8170 ha         1 FOV       0.146000
     30 H5          -6.2700     0.9160     1.1590 ha         1 FOV       0.156000
     31 H6           0.1260     0.7540    -2.8280 ha         1 FOV       0.134000
     32 H7           2.5080     1.1540    -2.3160 ha         1 FOV       0.151000
@<TRIPOS>BOND
     1     1     2 1   
     2     2     3 1   
     3     2     4 1   
     4     4     5 ar  
     5     4     6 ar  
     6     5    18 ar  
     7     5    26 1   
     8     6     7 1   
     9     6    16 ar  
    10     7     8 1   
    11     7    27 1   
    12     8     9 ar  
    13     8    12 ar  
    14     9    10 ar  
    15     9    28 1   
    16    10    11 1   
    17    10    15 ar  
    18    12    13 ar  
    19    12    29 1   
    20    13    14 1   
    21    13    15 ar  
    22    15    30 1   
    23    16    17 ar  
    24    16    31 1   
    25    17    18 ar  
    26    17    32 1   
    27    18    19 1   
    28    19    20 2   
    29    19    21 2   
    30    19    22 1   
    31    22    23 1   
    32    22    24 1   
    33    22    25 1   
@<TRIPOS>SUBSTRUCTURE
     1 FOV         1 TEMP              0 ****  ****    0 ROOT
