@<TRIPOS>MOLECULE
FOV
   32    33     1     0     0
SMALL
bcc


@<TRIPOS>ATOM
      1 O4          -0.6330    -0.6650     2.4030 o          1 FOV      -0.193000
      2 N1          -0.7540    -0.9740     1.2420 no         1 FOV       0.321200
      3 O3          -1.5000    -1.8290     0.8320 o          1 FOV      -0.193000
      4 C3           0.0860    -0.2980     0.2700 ca         1 FOV      -0.264200
      5 C2           1.3970    -0.0740     0.6470 ca         1 FOV       0.080000
      6 C4          -0.3820     0.0240    -1.0200 ca         1 FOV       0.310600
      7 N2          -1.6750    -0.0730    -1.4250 nu         1 FOV      -0.628000
      8 C11         -2.8180     0.1250    -0.6460 ca         1 FOV       0.175600
      9 C10         -3.9780    -0.5650    -0.9840 ca         1 FOV      -0.151000
     10 C9          -5.1270    -0.3400    -0.2460 ca         1 FOV       0.076400
     11 CL1         -6.5690    -1.1950    -0.6640 cl         1 FOV      -0.082400
     12 C12         -2.8160     1.0320     0.4100 ca         1 FOV      -0.217000
     13 C13         -3.9820     1.1970     1.1280 ca         1 FOV       0.183900
     14 F4          -3.9840     2.0650     2.1450 f          1 FOV      -0.125900
     15 C8          -5.1550     0.5320     0.8310 ca         1 FOV      -0.171000
     16 C5           0.5720     0.4870    -1.9450 ca         1 FOV      -0.234000
     17 C6           1.8850     0.6710    -1.5990 ca         1 FOV       0.053000
     18 C1           2.2930     0.4080    -0.2880 ca         1 FOV      -0.357500
     19 S1           3.9550     0.6800     0.1780 sy         1 FOV       1.061300
     20 O1           4.5600     1.6650    -0.6990 o          1 FOV      -0.535300
     21 O2           4.0610     0.7800     1.6220 o          1 FOV      -0.535300
     22 C7           4.7550    -0.9300    -0.2630 c3         1 FOV       0.617700
     23 F1           4.6490    -1.1360    -1.5650 f          1 FOV      -0.219633
     24 F2           6.0300    -0.8810     0.0790 f          1 FOV      -0.219633
     25 F3           4.1590    -1.9160     0.3870 f          1 FOV      -0.219633
     26 H1           1.7140    -0.3100     1.6550 ha         1 FOV       0.191000
     27 H2          -1.8200    -0.0690    -2.4240 hn         1 FOV       0.456800
     28 H3          -3.9730    -1.2730    -1.8010 ha         1 FOV       0.161000
     29 H4          -1.9460     1.6310     0.6520 ha         1 FOV       0.164000
     30 H5          -6.0520     0.6940     1.4120 ha         1 FOV       0.174000
     31 H6           0.2450     0.7380    -2.9460 ha         1 FOV       0.152000
     32 H7           2.5780     1.0530    -2.3360 ha         1 FOV       0.169000
@<TRIPOS>BOND
     1     1     2 1   
     2     2     3 1   
     3     2     4 1   
     4     4     5 ar  
     5     4     6 ar  
     6     5    18 ar  
     7     5    26 1   
     8     6     7 1   
     9     6    16 ar  
    10     7     8 1   
    11     7    27 1   
    12     8     9 ar  
    13     8    12 ar  
    14     9    10 ar  
    15     9    28 1   
    16    10    11 1   
    17    10    15 ar  
    18    12    13 ar  
    19    12    29 1   
    20    13    14 1   
    21    13    15 ar  
    22    15    30 1   
    23    16    17 ar  
    24    16    31 1   
    25    17    18 ar  
    26    17    32 1   
    27    18    19 1   
    28    19    20 2   
    29    19    21 2   
    30    19    22 1   
    31    22    23 1   
    32    22    24 1   
    33    22    25 1   
@<TRIPOS>SUBSTRUCTURE
     1 FOV         1 TEMP              0 ****  ****    0 ROOT
