@<TRIPOS>MOLECULE
FOW
   58    63     1     0     0
SMALL
abcg2


@<TRIPOS>ATOM
      1 N6           7.9840     0.9020    -0.9820 ns         1 FOW      -0.427400
      2 C10         -5.5680    -0.6610    -0.6140 c5         1 FOW      -0.000700
      3 C11         -4.7480    -1.6510     0.2330 c6         1 FOW      -0.062400
      4 C12         -3.3960    -1.0970     0.6460 c6         1 FOW       0.169800
      5 C15          1.1020    -0.0580    -0.9280 cc         1 FOW      -0.202300
      6 C16          2.0990    -0.8400    -0.4070 cd         1 FOW      -0.130000
      7 C20          6.6380    -1.1560     1.7310 ca         1 FOW      -0.098000
      8 C21          6.7500    -0.3190     0.6230 ca         1 FOW      -0.168600
      9 C22          5.6070     0.0660    -0.0880 ca         1 FOW       0.150400
     10 C23          6.8220     1.1790    -1.6270 cc         1 FOW       0.502800
     11 C24          8.0620     0.1500     0.1650 c          1 FOW       0.573600
     12 C25         -3.2790     0.2990    -1.2900 c6         1 FOW       0.169800
     13 O            9.1160    -0.0870     0.7170 o          1 FOW      -0.519000
     14 C19          5.3830    -1.5910     2.0860 ca         1 FOW       0.336900
     15 N4           4.2760    -1.2010     1.4490 nb         1 FOW      -0.669000
     16 N5           5.6600     0.8080    -1.2370 nd         1 FOW      -0.579100
     17 C18          4.3730    -0.3960     0.4230 ca         1 FOW       0.476500
     18 N2           3.1610    -0.0250    -0.1790 na         1 FOW       0.110300
     19 N3           2.9030     1.2460    -0.4990 nd         1 FOW      -0.483800
     20 C17          1.6690     1.2380    -0.9490 cc         1 FOW       0.244900
     21 C13         -1.2580    -0.3510    -0.1610 c3         1 FOW       0.168800
     22 N1          -2.6100    -0.7340    -0.5200 n3         1 FOW      -0.723600
     23 C26         -4.6690    -0.1350    -1.7340 c6         1 FOW      -0.062400
     24 H1           8.8470     1.2540    -1.3760 hn         1 FOW       0.336500
     25 H4          -5.3050    -1.9530     1.1250 hc         1 FOW       0.048450
     26 H5          -4.5830    -2.5580    -0.3580 hc         1 FOW       0.048450
     27 H6          -3.5260    -0.2490     1.3410 h1         1 FOW       0.030700
     28 H7          -2.8560    -1.8670     1.2030 h1         1 FOW       0.030700
     29 H8          -0.6040     0.1650    -2.1640 hc         1 FOW       0.051700
     30 H9          -0.2800    -1.4910    -1.6940 hc         1 FOW       0.051700
     31 H10          2.1430    -1.8980    -0.2050 h4         1 FOW       0.164000
     32 H11          7.5110    -1.4660     2.2870 ha         1 FOW       0.151000
     33 H12          6.9300     1.7570    -2.5360 h5         1 FOW       0.055800
     34 H13         -3.3270     1.2450    -0.7240 h1         1 FOW       0.030700
     35 H14         -2.6920     0.5220    -2.1830 h1         1 FOW       0.030700
     36 H15          5.2450    -2.2650     2.9210 h4         1 FOW       0.033100
     37 H16          1.2050     2.1550    -1.2790 h4         1 FOW       0.037100
     38 H17         -0.9120    -1.0180     0.6330 h1         1 FOW       0.033700
     39 H18         -1.2220     0.6690     0.2580 h1         1 FOW       0.033700
     40 H20         -4.5540    -0.9380    -2.4700 hc         1 FOW       0.048450
     41 H21         -5.1570     0.6940    -2.2520 hc         1 FOW       0.048450
     42 C1          -6.8130    -1.3600    -1.2010 c5         1 FOW      -0.074400
     43 C2          -6.2180     0.3860     0.2780 ca         1 FOW      -0.076300
     44 C4          -7.5330     0.0150     0.5740 ca         1 FOW      -0.089300
     45 C5          -7.8920    -1.2680    -0.1190 c5         1 FOW      -0.034100
     46 C3          -5.7040     1.5580     0.8180 ca         1 FOW      -0.095000
     47 C6          -8.3270     0.7940     1.3990 ca         1 FOW      -0.100000
     48 C8          -7.8060     1.9680     1.9350 ca         1 FOW      -0.111000
     49 C9          -6.5030     2.3470     1.6420 ca         1 FOW      -0.115000
     50 H2          -7.1440    -0.8080    -2.0860 hc         1 FOW       0.047700
     51 H3          -6.5980    -2.3830    -1.5160 hc         1 FOW       0.047700
     52 H19         -8.9050    -1.2660    -0.5250 hc         1 FOW       0.052200
     53 H22         -7.8330    -2.1110     0.5770 hc         1 FOW       0.052200
     54 H23         -4.6930     1.8790     0.6070 ha         1 FOW       0.113000
     55 H24         -9.3470     0.5010     1.6180 ha         1 FOW       0.112000
     56 H25         -8.4190     2.5890     2.5760 ha         1 FOW       0.111000
     57 H26         -6.1030     3.2640     2.0540 ha         1 FOW       0.110000
     58 C14         -0.2780    -0.4610    -1.3300 c3         1 FOW       0.007900
@<TRIPOS>BOND
     1     1    10 1   
     2     1    11 1   
     3     1    24 1   
     4     2     3 1   
     5     2    23 1   
     6     2    42 1   
     7     2    43 1   
     8     3     4 1   
     9     3    25 1   
    10     3    26 1   
    11     4    22 1   
    12     4    27 1   
    13     4    28 1   
    14     5     6 2   
    15     5    20 1   
    16     5    58 1   
    17     6    18 1   
    18     6    31 1   
    19     7     8 ar  
    20     7    14 ar  
    21     7    32 1   
    22     8     9 ar  
    23     8    11 1   
    24     9    16 1   
    25     9    17 ar  
    26    10    16 2   
    27    10    33 1   
    28    11    13 2   
    29    12    22 1   
    30    12    23 1   
    31    12    34 1   
    32    12    35 1   
    33    14    15 ar  
    34    14    36 1   
    35    15    17 ar  
    36    17    18 1   
    37    18    19 1   
    38    19    20 2   
    39    20    37 1   
    40    21    22 1   
    41    21    38 1   
    42    21    39 1   
    43    21    58 1   
    44    23    40 1   
    45    23    41 1   
    46    29    58 1   
    47    30    58 1   
    48    42    45 1   
    49    42    50 1   
    50    42    51 1   
    51    43    44 ar  
    52    43    46 ar  
    53    44    45 1   
    54    44    47 ar  
    55    45    52 1   
    56    45    53 1   
    57    46    49 ar  
    58    46    54 1   
    59    47    48 ar  
    60    47    55 1   
    61    48    49 ar  
    62    48    56 1   
    63    49    57 1   
@<TRIPOS>SUBSTRUCTURE
     1 FOW         1 TEMP              0 ****  ****    0 ROOT
