@<TRIPOS>MOLECULE
FOW
   58    63     1     0     0
SMALL
No Charge or Current Charge


@<TRIPOS>ATOM
      1 N6           7.5160     0.0720    -1.9340 ns         1 FOW      -0.427400
      2 C10         -5.4970    -0.7450    -0.7550 c5         1 FOW      -0.000700
      3 C11         -4.7200    -1.6890     0.2090 c6         1 FOW      -0.062400
      4 C12         -3.4530    -1.0280     0.7970 c6         1 FOW       0.169800
      5 C15          1.2390     0.3910    -0.1160 cc         1 FOW      -0.202300
      6 C16          2.3690    -0.3710    -0.0360 cd         1 FOW      -0.130000
      7 C20          7.0240    -1.1600     1.5010 ca         1 FOW      -0.098000
      8 C21          6.8070    -0.5730     0.2390 ca         1 FOW      -0.168600
      9 C22          5.5370    -0.0240    -0.0580 ca         1 FOW       0.150400
     10 C23          6.2730     0.5910    -2.1800 cc         1 FOW       0.502800
     11 C24          7.8850    -0.5220    -0.7800 c          1 FOW       0.573600
     12 C25         -3.1420     0.3450    -1.2110 c6         1 FOW       0.169800
     13 O            9.0090    -0.9700    -0.6110 o          1 FOW      -0.519000
     14 C19          5.9800    -1.1870     2.4320 ca         1 FOW       0.336900
     15 N4           4.7600    -0.6730     2.1770 nb         1 FOW      -0.669000
     16 N5           5.2570     0.5810    -1.3160 nd         1 FOW      -0.579100
     17 C18          4.5220    -0.0960     0.9610 ca         1 FOW       0.476500
     18 N2           3.2610     0.4530     0.6540 na         1 FOW       0.110300
     19 N3           2.7480     1.6820     1.0500 nd         1 FOW      -0.483800
     20 C17          1.5310     1.6060     0.5490 cc         1 FOW       0.244900
     21 C13         -1.2120    -0.1540     0.2810 c3         1 FOW       0.168800
     22 N1          -2.5070    -0.6260    -0.2760 n3         1 FOW      -0.723600
     23 C26         -4.4840    -0.1730    -1.7980 c6         1 FOW      -0.062400
     24 H1           8.2210     0.1280    -2.6550 hn         1 FOW       0.336500
     25 H4          -5.3740    -2.0170     1.0290 hc         1 FOW       0.048450
     26 H5          -4.4240    -2.6000    -0.3280 hc         1 FOW       0.048450
     27 H6          -3.7380    -0.1600     1.4080 h1         1 FOW       0.030700
     28 H7          -2.9710    -1.7510     1.4730 h1         1 FOW       0.030700
     29 H8          -0.3620     0.8870    -1.4330 hc         1 FOW       0.051700
     30 H9           0.0120    -0.8310    -1.3730 hc         1 FOW       0.051700
     31 H10          2.6050    -1.3680    -0.3940 h4         1 FOW       0.164000
     32 H11          7.9860    -1.5920     1.7660 ha         1 FOW       0.151000
     33 H12          6.1910     1.0210    -3.1710 h5         1 FOW       0.055800
     34 H13         -3.2930     1.3110    -0.7140 h1         1 FOW       0.030700
     35 H14         -2.4740     0.5460    -2.0600 h1         1 FOW       0.030700
     36 H15          6.1240    -1.6360     3.4140 h4         1 FOW       0.033100
     37 H16          0.8640     2.4460     0.6860 h4         1 FOW       0.037100
     38 H17         -0.8430    -0.8950     1.0030 h1         1 FOW       0.033700
     39 H18         -1.3650     0.7810     0.8390 h1         1 FOW       0.033700
     40 H20         -4.2460    -0.9670    -2.5200 hc         1 FOW       0.048450
     41 H21         -4.9600     0.6270    -2.3810 hc         1 FOW       0.048450
     42 C1          -6.7020    -1.4860    -1.4700 c5         1 FOW      -0.074400
     43 C2          -6.3040     0.2890     0.0320 ca         1 FOW      -0.076300
     44 C4          -7.6200    -0.1180     0.1970 ca         1 FOW      -0.089300
     45 C5          -7.8970    -1.4440    -0.4550 c5         1 FOW      -0.034100
     46 C3          -5.8740     1.5040     0.6020 ca         1 FOW      -0.095000
     47 C6          -8.5470     0.6590     0.9090 ca         1 FOW      -0.100000
     48 C8          -8.1270     1.8780     1.4690 ca         1 FOW      -0.111000
     49 C9          -6.7920     2.2980     1.3170 ca         1 FOW      -0.115000
     50 H2          -6.9840    -0.9540    -2.3870 hc         1 FOW       0.047700
     51 H3          -6.4510    -2.5080    -1.7740 hc         1 FOW       0.047700
     52 H19         -8.8710    -1.4860    -0.9570 hc         1 FOW       0.052200
     53 H22         -7.8530    -2.2680     0.2660 hc         1 FOW       0.052200
     54 H23         -4.8490     1.8400     0.5150 ha         1 FOW       0.113000
     55 H24         -9.5750     0.3230     1.0270 ha         1 FOW       0.112000
     56 H25         -8.8320     2.4930     2.0240 ha         1 FOW       0.111000
     57 H26         -6.4660     3.2370     1.7580 ha         1 FOW       0.110000
     58 C14         -0.0860     0.0700    -0.7560 c3         1 FOW       0.007900
@<TRIPOS>BOND
     1     1    10 1   
     2     1    11 1   
     3     1    24 1   
     4     2     3 1   
     5     2    23 1   
     6     2    42 1   
     7     2    43 1   
     8     3     4 1   
     9     3    25 1   
    10     3    26 1   
    11     4    22 1   
    12     4    27 1   
    13     4    28 1   
    14     5     6 2   
    15     5    20 1   
    16     5    58 1   
    17     6    18 1   
    18     6    31 1   
    19     7     8 ar  
    20     7    14 ar  
    21     7    32 1   
    22     8     9 ar  
    23     8    11 1   
    24     9    16 1   
    25     9    17 ar  
    26    10    16 2   
    27    10    33 1   
    28    11    13 2   
    29    12    22 1   
    30    12    23 1   
    31    12    34 1   
    32    12    35 1   
    33    14    15 ar  
    34    14    36 1   
    35    15    17 ar  
    36    17    18 1   
    37    18    19 1   
    38    19    20 2   
    39    20    37 1   
    40    21    22 1   
    41    21    38 1   
    42    21    39 1   
    43    21    58 1   
    44    23    40 1   
    45    23    41 1   
    46    29    58 1   
    47    30    58 1   
    48    42    45 1   
    49    42    50 1   
    50    42    51 1   
    51    43    44 ar  
    52    43    46 ar  
    53    44    45 1   
    54    44    47 ar  
    55    45    52 1   
    56    45    53 1   
    57    46    49 ar  
    58    46    54 1   
    59    47    48 ar  
    60    47    55 1   
    61    48    49 ar  
    62    48    56 1   
    63    49    57 1   
@<TRIPOS>SUBSTRUCTURE
     1 FOW         1 TEMP              0 ****  ****    0 ROOT
