@<TRIPOS>MOLECULE
FOY
   37    39     1     0     0
SMALL
No Charge or Current Charge


@<TRIPOS>ATOM
      1 O2          -1.7400     3.4690     1.5020 o          1 FOY      -0.559000
      2 C15         -0.8690     2.7030     1.1130 c          1 FOY       0.554200
      3 N2          -1.0380     1.3060     1.0380 n          1 FOY      -0.266000
      4 C8          -2.3500     0.7290     1.4340 c3         1 FOY       0.136300
      5 C9          -2.7950    -0.4490     0.5700 ca         1 FOY      -0.118300
      6 C10         -3.0940    -0.2500    -0.7930 ca         1 FOY      -0.086500
      7 C11         -3.4730    -1.3360    -1.6010 ca         1 FOY      -0.114000
      8 C12         -3.5550    -2.6260    -1.0520 ca         1 FOY      -0.097000
      9 C13         -3.2590    -2.8300     0.3060 ca         1 FOY      -0.114000
     10 C14         -2.8800    -1.7450     1.1150 ca         1 FOY      -0.086500
     11 C7           0.0030     0.4660     0.6230 cc         1 FOY      -0.020400
     12 C6           1.2380     0.9320     0.1960 cd         1 FOY      -0.113200
     13 C17          1.4630     2.3590     0.2380 cd         1 FOY      -0.075000
     14 C16          0.4470     3.1790     0.6830 cc         1 FOY      -0.320200
     15 C5           2.2550    -0.0230    -0.2560 cd         1 FOY      -0.173800
     16 C2           2.0350    -1.3390    -0.6030 cc         1 FOY       0.193300
     17 C1           0.8150    -2.2120    -0.7620 c3         1 FOY      -0.139400
     18 O1           3.2310    -1.8920    -0.9910 os         1 FOY      -0.072700
     19 N1           4.2630    -0.9020    -0.8960 nc         1 FOY      -0.363300
     20 C3           3.6510     0.1850    -0.4640 cd         1 FOY       0.290300
     21 C4           4.4970     1.4040    -0.2000 c3         1 FOY      -0.133400
     22 H1          -2.2830     0.4140     2.4830 h1         1 FOY       0.070200
     23 H2          -3.1340     1.4940     1.3780 h1         1 FOY       0.070200
     24 H3          -3.0250     0.7460    -1.2260 ha         1 FOY       0.117000
     25 H4          -3.7000    -1.1760    -2.6530 ha         1 FOY       0.115500
     26 H5          -3.8470    -3.4670    -1.6780 ha         1 FOY       0.114000
     27 H6          -3.3210    -3.8300     0.7310 ha         1 FOY       0.115500
     28 H7          -2.6470    -1.9160     2.1650 ha         1 FOY       0.117000
     29 H8          -0.2770    -0.5690     0.7290 h4         1 FOY       0.199000
     30 H9           2.3840     2.8160    -0.0980 ha         1 FOY       0.189000
     31 H10          0.5730     4.2550     0.7260 ha         1 FOY       0.210000
     32 H11          1.0380    -3.0760    -1.3990 hc         1 FOY       0.063367
     33 H12          0.4770    -2.6010     0.2060 hc         1 FOY       0.063367
     34 H13         -0.0080    -1.6660    -1.2380 hc         1 FOY       0.063367
     35 H14          4.3590     2.1570    -0.9840 hc         1 FOY       0.057367
     36 H15          4.2580     1.8490     0.7720 hc         1 FOY       0.057367
     37 H16          5.5650     1.1520    -0.1800 hc         1 FOY       0.057367
@<TRIPOS>BOND
     1     1     2 2   
     2     2     3 1   
     3     2    14 1   
     4     3     4 1   
     5     3    11 1   
     6     4     5 1   
     7     4    22 1   
     8     4    23 1   
     9     5     6 ar  
    10     5    10 ar  
    11     6     7 ar  
    12     6    24 1   
    13     7     8 ar  
    14     7    25 1   
    15     8     9 ar  
    16     8    26 1   
    17     9    10 ar  
    18     9    27 1   
    19    10    28 1   
    20    11    12 2   
    21    11    29 1   
    22    12    13 1   
    23    12    15 1   
    24    13    14 2   
    25    13    30 1   
    26    14    31 1   
    27    15    16 2   
    28    15    20 1   
    29    16    17 1   
    30    16    18 1   
    31    17    32 1   
    32    17    33 1   
    33    17    34 1   
    34    18    19 1   
    35    19    20 2   
    36    20    21 1   
    37    21    35 1   
    38    21    36 1   
    39    21    37 1   
@<TRIPOS>SUBSTRUCTURE
     1 FOY         1 TEMP              0 ****  ****    0 ROOT
