@<TRIPOS>MOLECULE
FOY
   37    39     1     0     0
SMALL
bcc


@<TRIPOS>ATOM
      1 O2          -2.0630     2.7980    -0.0110 o          1 FOY      -0.634500
      2 C15         -1.0010     2.1840    -0.0240 c          1 FOY       0.696700
      3 N2          -0.8460     1.0170     0.7200 n          1 FOY      -0.333000
      4 C8          -2.0020     0.5160     1.4680 c3         1 FOY       0.136300
      5 C9          -2.9210    -0.2990     0.5940 ca         1 FOY      -0.118300
      6 C10         -4.0770     0.2570     0.0550 ca         1 FOY      -0.104500
      7 C11         -4.9070    -0.4980    -0.7630 ca         1 FOY      -0.132000
      8 C12         -4.5870    -1.8170    -1.0550 ca         1 FOY      -0.115000
      9 C13         -3.4380    -2.3820    -0.5160 ca         1 FOY      -0.132000
     10 C14         -2.6140    -1.6270     0.3060 ca         1 FOY      -0.104500
     11 C7           0.3040     0.3020     0.7360 cc         1 FOY       0.029600
     12 C6           1.4020     0.6540     0.0110 cd         1 FOY      -0.113200
     13 C17          1.3020     1.8390    -0.7650 cd         1 FOY      -0.025000
     14 C16          0.1640     2.5740    -0.7730 cc         1 FOY      -0.270200
     15 C5           2.6130    -0.1630     0.0320 cd         1 FOY      -0.304400
     16 C2           2.7400    -1.4960    -0.2040 cc         1 FOY       0.303000
     17 C1           1.7690    -2.5520    -0.5670 c3         1 FOY      -0.139400
     18 O1           4.0210    -1.8450    -0.0710 os         1 FOY      -0.117100
     19 N1           4.7710    -0.7490     0.2510 nc         1 FOY      -0.363300
     20 C3           3.9490     0.2550     0.3140 cd         1 FOY       0.355600
     21 C4           4.4190     1.6210     0.6650 c3         1 FOY      -0.133400
     22 H1          -1.6220    -0.0870     2.2920 h1         1 FOY       0.070200
     23 H2          -2.5270     1.3630     1.9030 h1         1 FOY       0.070200
     24 H3          -4.3280     1.2860     0.2750 ha         1 FOY       0.135000
     25 H4          -5.8050    -0.0540    -1.1740 ha         1 FOY       0.133500
     26 H5          -5.2320    -2.4050    -1.6950 ha         1 FOY       0.132000
     27 H6          -3.1860    -3.4120    -0.7300 ha         1 FOY       0.133500
     28 H7          -1.7300    -2.0860     0.7360 ha         1 FOY       0.135000
     29 H8           0.3110    -0.5660     1.3810 h4         1 FOY       0.149000
     30 H9           2.1450     2.1550    -1.3680 ha         1 FOY       0.139000
     31 H10          0.0870     3.4740    -1.3670 ha         1 FOY       0.160000
     32 H11          2.1140    -3.1250    -1.4280 hc         1 FOY       0.063367
     33 H12          1.6140    -3.2510     0.2570 hc         1 FOY       0.063367
     34 H13          0.8080    -2.1080    -0.8180 hc         1 FOY       0.063367
     35 H14          4.3410     2.2960    -0.1880 hc         1 FOY       0.057367
     36 H15          3.8110     2.0370     1.4680 hc         1 FOY       0.057367
     37 H16          5.4580     1.6040     0.9880 hc         1 FOY       0.057367
@<TRIPOS>BOND
     1     1     2 2   
     2     2     3 1   
     3     2    14 1   
     4     3     4 1   
     5     3    11 1   
     6     4     5 1   
     7     4    22 1   
     8     4    23 1   
     9     5     6 ar  
    10     5    10 ar  
    11     6     7 ar  
    12     6    24 1   
    13     7     8 ar  
    14     7    25 1   
    15     8     9 ar  
    16     8    26 1   
    17     9    10 ar  
    18     9    27 1   
    19    10    28 1   
    20    11    12 2   
    21    11    29 1   
    22    12    13 1   
    23    12    15 1   
    24    13    14 2   
    25    13    30 1   
    26    14    31 1   
    27    15    16 2   
    28    15    20 1   
    29    16    17 1   
    30    16    18 1   
    31    17    32 1   
    32    17    33 1   
    33    17    34 1   
    34    18    19 1   
    35    19    20 2   
    36    20    21 1   
    37    21    35 1   
    38    21    36 1   
    39    21    37 1   
@<TRIPOS>SUBSTRUCTURE
     1 FOY         1 TEMP              0 ****  ****    0 ROOT
