@<TRIPOS>MOLECULE
FP0
   46    49     1     0     0
SMALL
abcg2


@<TRIPOS>ATOM
      1 C2          16.8610     4.5830   -31.5980 c5         1 FP0       0.192300
      2 C6          15.5800     5.7040   -29.2620 c6         1 FP0      -0.054000
      3 C5          15.5200     6.3420   -30.7060 c5         1 FP0      -0.018000
      4 C4          16.8950     6.9730   -31.0890 c5         1 FP0      -0.096400
      5 C3          17.7180     5.8480   -31.7530 c5         1 FP0       0.136300
      6 C11         16.8300     4.7930   -29.1720 c6         1 FP0       0.208500
      7 C10         16.8240     3.8650   -27.9950 c2         1 FP0      -0.225200
      8 C9          15.7500     3.5960   -27.2520 c2         1 FP0      -0.095400
      9 C8          14.4170     4.2200   -27.5550 c6         1 FP0      -0.045200
     10 C12         15.4810     5.1890   -31.7070 cx         1 FP0       0.053000
     11 C13         14.3200     4.4990   -32.2410 cx         1 FP0       0.114600
     12 O4          19.7860     7.5150   -32.1140 o          1 FP0      -0.484000
     13 C17         19.9650     6.5430   -31.4150 c          1 FP0       0.586100
     14 C18         21.2410     6.2130   -30.6980 c3         1 FP0      -0.154100
     15 O3          19.0150     5.6270   -31.1680 os         1 FP0      -0.440100
     16 O2          15.0350     5.4590   -33.0510 op         1 FP0      -0.448000
     17 O1          16.9920     3.9430   -30.3360 os         1 FP0      -0.437000
     18 C14         14.3830     7.3410   -30.8860 c3         1 FP0      -0.074100
     19 C7          14.3470     4.8380   -28.9510 c6         1 FP0      -0.054400
     20 C15         15.7530     6.7880   -28.1810 c3         1 FP0       0.166600
     21 O12         14.5040     7.4140   -27.8730 oh         1 FP0      -0.666000
     22 C16         15.8040     2.6880   -26.0610 c3         1 FP0      -0.055900
     23 H2          17.0710     3.8260   -32.3510 h1         1 FP0       0.100700
     24 H4          16.7390     7.7870   -31.7950 hc         1 FP0       0.065200
     25 H4A         17.4260     7.3890   -30.2360 hc         1 FP0       0.065200
     26 H3          17.8570     6.0500   -32.8140 h1         1 FP0       0.080700
     27 H11         17.7190     5.4270   -29.1040 h1         1 FP0       0.051700
     28 H10         17.7760     3.4000   -27.7590 ha         1 FP0       0.181000
     29 H8          13.6370     3.4600   -27.4530 hc         1 FP0       0.051200
     30 H8A         14.1980     4.9720   -26.7880 hc         1 FP0       0.051200
     31 H13         14.4120     3.4660   -32.5630 h1         1 FP0       0.081200
     32 H13A        13.3260     4.8140   -31.9430 h1         1 FP0       0.081200
     33 H18         22.0510     6.8270   -31.0820 hc         1 FP0       0.070367
     34 H18A        21.1080     6.4180   -29.6330 hc         1 FP0       0.070367
     35 H18B        21.4810     5.1550   -30.8050 hc         1 FP0       0.070367
     36 H14         14.5390     8.2140   -30.2550 hc         1 FP0       0.047033
     37 H14A        14.3470     7.6660   -31.9260 hc         1 FP0       0.047033
     38 H14B        13.4140     6.9130   -30.6280 hc         1 FP0       0.047033
     39 H7          13.4330     5.4190   -29.0500 hc         1 FP0       0.053200
     40 H7A         14.2960     4.0280   -29.6780 hc         1 FP0       0.053200
     41 H15         16.1620     6.3280   -27.2780 h1         1 FP0       0.026200
     42 H15A        16.4720     7.5400   -28.5150 h1         1 FP0       0.026200
     43 HO12        14.6570     8.0290   -27.1470 ho         1 FP0       0.441000
     44 H16         15.1250     1.8410   -26.1920 hc         1 FP0       0.042367
     45 H16A        16.8110     2.3050   -25.8880 hc         1 FP0       0.042367
     46 H16B        15.4740     3.2170   -25.1610 hc         1 FP0       0.042367
@<TRIPOS>BOND
     1     1     5 1   
     2     1    10 1   
     3     1    17 1   
     4     1    23 1   
     5     2     3 1   
     6     2     6 1   
     7     2    19 1   
     8     2    20 1   
     9     3     4 1   
    10     3    10 1   
    11     3    18 1   
    12     4     5 1   
    13     4    24 1   
    14     4    25 1   
    15     5    15 1   
    16     5    26 1   
    17     6     7 1   
    18     6    17 1   
    19     6    27 1   
    20     7     8 2   
    21     7    28 1   
    22     8     9 1   
    23     8    22 1   
    24     9    19 1   
    25     9    29 1   
    26     9    30 1   
    27    10    11 1   
    28    10    16 1   
    29    11    16 1   
    30    11    31 1   
    31    11    32 1   
    32    12    13 2   
    33    13    14 1   
    34    13    15 1   
    35    14    33 1   
    36    14    34 1   
    37    14    35 1   
    38    18    36 1   
    39    18    37 1   
    40    18    38 1   
    41    19    39 1   
    42    19    40 1   
    43    20    21 1   
    44    20    41 1   
    45    20    42 1   
    46    21    43 1   
    47    22    44 1   
    48    22    45 1   
    49    22    46 1   
@<TRIPOS>SUBSTRUCTURE
     1 FP0         1 TEMP              0 ****  ****    0 ROOT
