@<TRIPOS>MOLECULE
FP0
   46    49     1     0     0
SMALL
No Charge or Current Charge


@<TRIPOS>ATOM
      1 C2          16.8490     4.5490   -31.7360 c5         1 FP0       0.192300
      2 C6          15.6030     5.7150   -29.2880 c6         1 FP0      -0.054000
      3 C5          15.5140     6.3510   -30.7640 c5         1 FP0      -0.018000
      4 C4          16.8680     7.0100   -31.2580 c5         1 FP0      -0.096400
      5 C3          17.7600     5.8220   -31.8720 c5         1 FP0       0.136300
      6 C11         16.8310     4.7270   -29.2260 c6         1 FP0       0.208500
      7 C10         16.8180     3.7860   -28.0290 c2         1 FP0      -0.225200
      8 C9          15.7480     3.5490   -27.2510 c2         1 FP0      -0.095400
      9 C8          14.4060     4.2210   -27.5060 c6         1 FP0      -0.045200
     10 C12         15.4940     5.2290   -31.8220 cx         1 FP0       0.053000
     11 C13         14.2700     4.4200   -32.1430 cx         1 FP0       0.114600
     12 O4          19.8470     7.5720   -32.0610 o          1 FP0      -0.484000
     13 C17         19.9760     6.5940   -31.3370 c          1 FP0       0.586100
     14 C18         21.2300     6.3140   -30.5230 c3         1 FP0      -0.154100
     15 O3          19.0350     5.6110   -31.1540 os         1 FP0      -0.440100
     16 O2          14.8230     5.3780   -33.0920 op         1 FP0      -0.448000
     17 O1          16.9960     3.9200   -30.4220 os         1 FP0      -0.437000
     18 C14         14.3340     7.3570   -30.9280 c3         1 FP0      -0.074100
     19 C7          14.3260     4.8700   -28.9110 c6         1 FP0      -0.054400
     20 C15         15.8450     6.8160   -28.1730 c3         1 FP0       0.166600
     21 O12         14.6830     7.5950   -27.8420 oh         1 FP0      -0.666000
     22 C16         15.7810     2.6240   -26.0500 c3         1 FP0      -0.055900
     23 H2          17.0360     3.8140   -32.5290 h1         1 FP0       0.100700
     24 H4          16.6780     7.7480   -32.0460 hc         1 FP0       0.065200
     25 H4A         17.3950     7.5570   -30.4710 hc         1 FP0       0.065200
     26 H3          17.9700     6.0080   -32.9350 h1         1 FP0       0.080700
     27 H11         17.7360     5.3420   -29.1230 h1         1 FP0       0.051700
     28 H10         17.7690     3.2960   -27.8220 ha         1 FP0       0.181000
     29 H8          13.5980     3.4810   -27.4160 hc         1 FP0       0.051200
     30 H8A         14.2160     4.9700   -26.7240 hc         1 FP0       0.051200
     31 H13         14.3840     3.3720   -32.4200 h1         1 FP0       0.081200
     32 H13A        13.3060     4.7000   -31.7200 h1         1 FP0       0.081200
     33 H18         22.0000     7.0820   -30.6540 hc         1 FP0       0.070367
     34 H18A        20.9480     6.1940   -29.4710 hc         1 FP0       0.070367
     35 H18B        21.6010     5.3160   -30.7780 hc         1 FP0       0.070367
     36 H14         14.4820     8.2550   -30.3200 hc         1 FP0       0.047033
     37 H14A        14.2540     7.7040   -31.9650 hc         1 FP0       0.047033
     38 H14B        13.3650     6.9210   -30.6640 hc         1 FP0       0.047033
     39 H7          13.4100     5.4720   -28.9700 hc         1 FP0       0.053200
     40 H7A         14.1960     4.0450   -29.6170 hc         1 FP0       0.053200
     41 H15         16.1990     6.3180   -27.2610 h1         1 FP0       0.026200
     42 H15A        16.6600     7.4800   -28.4820 h1         1 FP0       0.026200
     43 HO12        14.9480     8.2180   -27.1300 ho         1 FP0       0.441000
     44 H16         15.0710     1.7970   -26.1690 hc         1 FP0       0.042367
     45 H16A        16.7760     2.1860   -25.9020 hc         1 FP0       0.042367
     46 H16B        15.5180     3.1630   -25.1310 hc         1 FP0       0.042367
@<TRIPOS>BOND
     1     1     5 1   
     2     1    10 1   
     3     1    17 1   
     4     1    23 1   
     5     2     3 1   
     6     2     6 1   
     7     2    19 1   
     8     2    20 1   
     9     3     4 1   
    10     3    10 1   
    11     3    18 1   
    12     4     5 1   
    13     4    24 1   
    14     4    25 1   
    15     5    15 1   
    16     5    26 1   
    17     6     7 1   
    18     6    17 1   
    19     6    27 1   
    20     7     8 2   
    21     7    28 1   
    22     8     9 1   
    23     8    22 1   
    24     9    19 1   
    25     9    29 1   
    26     9    30 1   
    27    10    11 1   
    28    10    16 1   
    29    11    16 1   
    30    11    31 1   
    31    11    32 1   
    32    12    13 2   
    33    13    14 1   
    34    13    15 1   
    35    14    33 1   
    36    14    34 1   
    37    14    35 1   
    38    18    36 1   
    39    18    37 1   
    40    18    38 1   
    41    19    39 1   
    42    19    40 1   
    43    20    21 1   
    44    20    41 1   
    45    20    42 1   
    46    21    43 1   
    47    22    44 1   
    48    22    45 1   
    49    22    46 1   
@<TRIPOS>SUBSTRUCTURE
     1 FP0         1 TEMP              0 ****  ****    0 ROOT
