@<TRIPOS>MOLECULE
FP2
   13    13     1     0     0
SMALL
No Charge or Current Charge


@<TRIPOS>ATOM
      1 C1          -0.5320     0.6390     0.1570 ca         1 FP2       0.101100
      2 C2          -0.5240    -0.7740     0.0940 ca         1 FP2       0.138000
      3 C3           0.6900    -1.4710    -0.0200 ca         1 FP2      -0.117000
      4 C4           1.9040    -0.7620    -0.0730 ca         1 FP2      -0.122000
      5 C5           1.9000     0.6430    -0.0100 ca         1 FP2      -0.085000
      6 C6           0.6850     1.3430     0.1050 ca         1 FP2      -0.184000
      7 F           -1.6850    -1.4700     0.1440 f          1 FP2      -0.168000
      8 O           -1.7080     1.3320     0.2690 oh         1 FP2      -0.515100
      9 H3           0.6890    -2.5570    -0.0680 ha         1 FP2       0.133000
     10 H4           2.8450    -1.2990    -0.1610 ha         1 FP2       0.120000
     11 H5           2.8410     1.1900    -0.0510 ha         1 FP2       0.117000
     12 H6           0.6970     2.4290     0.1520 ha         1 FP2       0.115000
     13 HO          -1.5050     2.2920     0.2970 ho         1 FP2       0.467000
@<TRIPOS>BOND
     1     1     2 ar  
     2     1     6 ar  
     3     1     8 1   
     4     2     3 ar  
     5     2     7 1   
     6     3     4 ar  
     7     3     9 1   
     8     4     5 ar  
     9     4    10 1   
    10     5     6 ar  
    11     5    11 1   
    12     6    12 1   
    13     8    13 1   
@<TRIPOS>SUBSTRUCTURE
     1 FP2         1 TEMP              0 ****  ****    0 ROOT
