@<TRIPOS>MOLECULE
FP2
   13    13     1     0     0
SMALL
bcc


@<TRIPOS>ATOM
      1 C1          -0.5060     0.6590     0.1570 ca         1 FP2       0.101100
      2 C2          -0.4850    -0.7330     0.0930 ca         1 FP2       0.102900
      3 C3           0.6890    -1.4430    -0.0190 ca         1 FP2      -0.135000
      4 C4           1.8980    -0.7580    -0.0720 ca         1 FP2      -0.140000
      5 C5           1.9020     0.6270    -0.0100 ca         1 FP2      -0.103000
      6 C6           0.7090     1.3310     0.1030 ca         1 FP2      -0.202000
      7 F           -1.6590    -1.3860     0.1470 f          1 FP2      -0.132900
      8 O           -1.7020     1.2640     0.2670 oh         1 FP2      -0.476100
      9 H3           0.6570    -2.5240    -0.0650 ha         1 FP2       0.151000
     10 H4           2.8240    -1.3090    -0.1620 ha         1 FP2       0.138000
     11 H5           2.8350     1.1730    -0.0500 ha         1 FP2       0.135000
     12 H6           0.7220     2.4140     0.1490 ha         1 FP2       0.133000
     13 HO          -1.5870     2.2210     0.2970 ho         1 FP2       0.428000
@<TRIPOS>BOND
     1     1     2 ar  
     2     1     6 ar  
     3     1     8 1   
     4     2     3 ar  
     5     2     7 1   
     6     3     4 ar  
     7     3     9 1   
     8     4     5 ar  
     9     4    10 1   
    10     5     6 ar  
    11     5    11 1   
    12     6    12 1   
    13     8    13 1   
@<TRIPOS>SUBSTRUCTURE
     1 FP2         1 TEMP              0 ****  ****    0 ROOT
