@<TRIPOS>MOLECULE
FP3
   35    38     1     0     0
SMALL
abcg2


@<TRIPOS>ATOM
      1 C1          58.6480    24.8230    -1.8270 ca         1 FP3       0.058000
      2 C2          59.6580    25.2680    -0.9880 ca         1 FP3      -0.041000
      3 C3          60.3390    26.4460    -1.2590 ca         1 FP3      -0.188000
      4 C4          60.0160    27.1840    -2.4010 ca         1 FP3       0.344000
      5 C5          58.9930    26.7370    -3.2400 ca         1 FP3      -0.241000
      6 C6          58.2990    25.5650    -2.9600 ca         1 FP3       0.173100
      7 N7          60.6550    28.3840    -2.7320 nu         1 FP3      -0.815000
      8 C8          64.7560    26.3740    -1.8130 ca         1 FP3       0.297900
      9 N9          65.6770    27.2720    -1.4090 nb         1 FP3      -0.639000
     10 C10         65.3310    28.5540    -1.3140 ca         1 FP3       0.345900
     11 C11         64.0380    28.9430    -1.6200 ca         1 FP3       0.031100
     12 C12         63.0600    28.0220    -2.0130 ca         1 FP3      -0.113800
     13 C13         63.4430    26.6830    -2.1260 ca         1 FP3      -0.093000
     14 O14         63.5520    30.2110    -1.6210 os         1 FP3      -0.129200
     15 C15         62.2270    30.1180    -2.0130 cc         1 FP3      -0.131700
     16 C16         61.8690    28.8060    -2.2550 cd         1 FP3       0.178800
     17 C17         61.4640    31.3350    -2.1400 ca         1 FP3       0.226800
     18 N18         62.0220    32.4890    -1.7430 nb         1 FP3      -0.181500
     19 C19         61.2800    33.5870    -1.8750 ca         1 FP3       0.121900
     20 C20         59.9910    33.5600    -2.3910 ca         1 FP3      -0.225000
     21 C21         59.5050    32.3180    -2.7770 ca         1 FP3       0.121900
     22 N22         60.2280    31.2080    -2.6630 nb         1 FP3      -0.181500
     23 O23         57.3020    25.1060    -3.7570 oh         1 FP3      -0.515100
     24 CL1         57.7990    23.3400    -1.4660 cl         1 FP3      -0.187000
     25 H2          59.9030    24.6930    -0.1050 ha         1 FP3       0.133000
     26 H3          61.0970    26.7940    -0.5730 ha         1 FP3       0.133000
     27 H5          58.7380    27.3040    -4.1280 ha         1 FP3       0.123000
     28 HN7         60.0600    29.1460    -3.0420 hn         1 FP3       0.527000
     29 H10         66.0820    29.2710    -1.0000 h4         1 FP3       0.041100
     30 H13         62.7580    25.9100    -2.4430 ha         1 FP3       0.137000
     31 H19         61.7320    34.5190    -1.5550 h4         1 FP3       0.029100
     32 H20         59.4000    34.4580    -2.4920 ha         1 FP3       0.139000
     33 H21         58.5100    32.2090    -3.1950 h4         1 FP3       0.029100
     34 HO23        57.1790    25.7060    -4.5050 ho         1 FP3       0.467000
     35 H8          65.0990    25.3490    -1.8870 h4         1 FP3       0.025100
@<TRIPOS>BOND
     1     1     2 ar  
     2     1     6 ar  
     3     1    24 1   
     4     2     3 ar  
     5     2    25 1   
     6     3     4 ar  
     7     3    26 1   
     8     4     5 ar  
     9     4     7 1   
    10     5     6 ar  
    11     5    27 1   
    12     6    23 1   
    13     7    16 1   
    14     7    28 1   
    15     8     9 ar  
    16     8    13 ar  
    17     8    35 1   
    18     9    10 ar  
    19    10    11 ar  
    20    10    29 1   
    21    11    12 ar  
    22    11    14 1   
    23    12    13 ar  
    24    12    16 1   
    25    13    30 1   
    26    14    15 1   
    27    15    16 2   
    28    15    17 1   
    29    17    18 ar  
    30    17    22 ar  
    31    18    19 ar  
    32    19    20 ar  
    33    19    31 1   
    34    20    21 ar  
    35    20    32 1   
    36    21    22 ar  
    37    21    33 1   
    38    23    34 1   
@<TRIPOS>SUBSTRUCTURE
     1 FP3         1 TEMP              0 ****  ****    0 ROOT
