@<TRIPOS>MOLECULE
FP3
   35    38     1     0     0
SMALL
No Charge or Current Charge


@<TRIPOS>ATOM
      1 C1          58.5800    24.7980    -1.8440 ca         1 FP3       0.058000
      2 C2          59.6220    25.1820    -0.9830 ca         1 FP3      -0.041000
      3 C3          60.3410    26.3630    -1.2380 ca         1 FP3      -0.188000
      4 C4          60.0320    27.1560    -2.3550 ca         1 FP3       0.344000
      5 C5          58.9790    26.7850    -3.2020 ca         1 FP3      -0.241000
      6 C6          58.2550    25.6060    -2.9560 ca         1 FP3       0.173100
      7 N7          60.7180    28.3380    -2.6150 nu         1 FP3      -0.815000
      8 C8          64.8050    26.3360    -1.7700 ca         1 FP3       0.297900
      9 N9          65.7600    27.2370    -1.3980 nb         1 FP3      -0.639000
     10 C10         65.4070    28.5530    -1.3360 ca         1 FP3       0.345900
     11 C11         64.0990    28.9740    -1.6350 ca         1 FP3       0.031100
     12 C12         63.1460    28.0560    -1.9890 ca         1 FP3      -0.113800
     13 C13         63.4760    26.6950    -2.0850 ca         1 FP3      -0.093000
     14 O14         63.6300    30.2710    -1.6390 os         1 FP3      -0.129200
     15 C15         62.2980    30.1430    -2.0390 cc         1 FP3      -0.131700
     16 C16         61.9520    28.8090    -2.2370 cd         1 FP3       0.178800
     17 C17         61.4380    31.3330    -2.1850 ca         1 FP3       0.226800
     18 N18         61.9780    32.5100    -1.7840 nb         1 FP3      -0.181500
     19 C19         61.2190    33.6170    -1.8990 ca         1 FP3       0.121900
     20 C20         59.9150    33.5600    -2.4150 ca         1 FP3      -0.225000
     21 C21         59.4320    32.3030    -2.8060 ca         1 FP3       0.121900
     22 N22         60.1880    31.1930    -2.6920 nb         1 FP3      -0.181500
     23 O23         57.2390    25.2560    -3.8010 oh         1 FP3      -0.515100
     24 Cl1         57.6890    23.3120    -1.5030 cl         1 FP3      -0.187000
     25 H2          59.8660    24.5700    -0.1190 ha         1 FP3       0.133000
     26 H3          61.1280    26.6670    -0.5550 ha         1 FP3       0.133000
     27 H5          58.7330    27.4080    -4.0570 ha         1 FP3       0.123000
     28 HN7         60.1580    29.0310    -3.1120 hn         1 FP3       0.527000
     29 H10         66.1810    29.2660    -1.0520 h4         1 FP3       0.041100
     30 H13         62.7570    25.9450    -2.4000 ha         1 FP3       0.137000
     31 H19         61.6620    34.5570    -1.5750 h4         1 FP3       0.029100
     32 H20         59.3040    34.4540    -2.5070 ha         1 FP3       0.139000
     33 H21         58.4300    32.1790    -3.2150 h4         1 FP3       0.029100
     34 HO23        57.1720    25.9360    -4.5050 ho         1 FP3       0.467000
     35 H8          65.1210    25.2940    -1.8230 h4         1 FP3       0.025100
@<TRIPOS>BOND
     1     1     2 ar  
     2     1     6 ar  
     3     1    24 1   
     4     2     3 ar  
     5     2    25 1   
     6     3     4 ar  
     7     3    26 1   
     8     4     5 ar  
     9     4     7 1   
    10     5     6 ar  
    11     5    27 1   
    12     6    23 1   
    13     7    16 1   
    14     7    28 1   
    15     8     9 ar  
    16     8    13 ar  
    17     8    35 1   
    18     9    10 ar  
    19    10    11 ar  
    20    10    29 1   
    21    11    12 ar  
    22    11    14 1   
    23    12    13 ar  
    24    12    16 1   
    25    13    30 1   
    26    14    15 1   
    27    15    16 2   
    28    15    17 1   
    29    17    18 ar  
    30    17    22 ar  
    31    18    19 ar  
    32    19    20 ar  
    33    19    31 1   
    34    20    21 ar  
    35    20    32 1   
    36    21    22 ar  
    37    21    33 1   
    38    23    34 1   
@<TRIPOS>SUBSTRUCTURE
     1 FP3         1 TEMP              0 ****  ****    0 ROOT
