@<TRIPOS>MOLECULE
FP4
   47    51     1     0     0
SMALL
abcg2


@<TRIPOS>ATOM
      1 C1          -0.1070    -4.3010    -1.3100 ca         1 FP4       0.295900
      2 N2           1.1550    -4.7310    -1.4370 nb         1 FP4      -0.641000
      3 C3           2.1490    -3.9410    -1.0720 ca         1 FP4       0.346900
      4 C4           1.8770    -2.6850    -0.5540 ca         1 FP4       0.031100
      5 C5           0.5710    -2.2300    -0.3880 ca         1 FP4      -0.120800
      6 C6          -0.4670    -3.0700    -0.7970 ca         1 FP4      -0.088000
      7 O7           2.7710    -1.7580    -0.1840 os         1 FP4      -0.117200
      8 C8           2.0540    -0.6770     0.2400 cc         1 FP4      -0.145700
      9 C9           0.7020    -0.9010     0.1550 cd         1 FP4       0.183800
     10 C10          2.7770     0.5070     0.6390 ca         1 FP4       0.233800
     11 N11          4.1040     0.4440     0.7110 nb         1 FP4      -0.183500
     12 C12          4.7290     1.5530     1.0770 ca         1 FP4       0.122400
     13 C13          4.0550     2.7260     1.3770 ca         1 FP4      -0.229000
     14 C14          2.6750     2.6840     1.2690 ca         1 FP4       0.122400
     15 N15          2.0340     1.5860     0.8980 nb         1 FP4      -0.183500
     16 N16         -0.2740     0.0110     0.4350 nu         1 FP4      -0.810000
     17 C17         -1.5500    -0.2700     0.9090 ca         1 FP4       0.377000
     18 C18         -1.8720    -1.4330     1.5840 ca         1 FP4      -0.209000
     19 C19         -3.1820    -1.6740     2.0380 ca         1 FP4      -0.043000
     20 C20         -4.2000    -0.7660     1.8670 ca         1 FP4      -0.164000
     21 C21         -3.8630     0.4220     1.2060 ca         1 FP4      -0.010200
     22 C22         -2.5720     0.6840     0.7180 ca         1 FP4      -0.259900
     23 N23         -4.6030     1.5020     0.8780 na         1 FP4      -0.061400
     24 N24         -3.8940     2.4290     0.2260 nc         1 FP4      -0.522100
     25 C25         -2.6710     1.9730     0.1060 cd         1 FP4       0.369900
     26 C26         -1.6220     2.7630    -0.6020 c3         1 FP4      -0.085700
     27 C27         -1.2420     2.1740    -1.9620 c3         1 FP4      -0.081400
     28 C28         -0.0540     2.9050    -2.5570 c3         1 FP4       0.164600
     29 O29          0.2440     2.3520    -3.8200 oh         1 FP4      -0.657000
     30 H1          -0.8770    -4.9870    -1.6400 h4         1 FP4       0.023100
     31 H3           3.1650    -4.3010    -1.1930 h4         1 FP4       0.039100
     32 H6          -1.5070    -2.7880    -0.7260 ha         1 FP4       0.138000
     33 H12          5.8110     1.5040     1.1350 h4         1 FP4       0.028100
     34 H13          4.5750     3.6230     1.6750 ha         1 FP4       0.139000
     35 H14          2.0680     3.5550     1.4830 h4         1 FP4       0.028100
     36 HN16         0.0890     0.9420     0.6050 hn         1 FP4       0.531000
     37 H18         -1.1070    -2.1700     1.7900 ha         1 FP4       0.127000
     38 H19         -3.3820    -2.6030     2.5560 ha         1 FP4       0.115000
     39 H20         -5.2020    -0.9570     2.2260 ha         1 FP4       0.123000
     40 H26         -1.9880     3.7830    -0.7350 hc         1 FP4       0.052200
     41 H26A        -0.7310     2.8460     0.0270 hc         1 FP4       0.052200
     42 H27         -0.9970     1.1140    -1.8570 hc         1 FP4       0.064200
     43 H27A        -2.1000     2.2400    -2.6360 hc         1 FP4       0.064200
     44 H28         -0.2850     3.9760    -2.6330 h1         1 FP4       0.013200
     45 H28A         0.7980     2.8160    -1.8680 h1         1 FP4       0.013200
     46 HO29         0.9990     2.8240    -4.1820 ho         1 FP4       0.441000
     47 HN23        -5.5770     1.6650     1.0740 hn         1 FP4       0.378000
@<TRIPOS>BOND
     1     1     2 ar  
     2     1     6 ar  
     3     1    30 1   
     4     2     3 ar  
     5     3     4 ar  
     6     3    31 1   
     7     4     5 ar  
     8     4     7 1   
     9     5     6 ar  
    10     5     9 1   
    11     6    32 1   
    12     7     8 1   
    13     8     9 2   
    14     8    10 1   
    15     9    16 1   
    16    10    11 ar  
    17    10    15 ar  
    18    11    12 ar  
    19    12    13 ar  
    20    12    33 1   
    21    13    14 ar  
    22    13    34 1   
    23    14    15 ar  
    24    14    35 1   
    25    16    17 1   
    26    16    36 1   
    27    17    18 ar  
    28    17    22 ar  
    29    18    19 ar  
    30    18    37 1   
    31    19    20 ar  
    32    19    38 1   
    33    20    21 ar  
    34    20    39 1   
    35    21    22 ar  
    36    21    23 1   
    37    22    25 1   
    38    23    24 1   
    39    23    47 1   
    40    24    25 2   
    41    25    26 1   
    42    26    27 1   
    43    26    40 1   
    44    26    41 1   
    45    27    28 1   
    46    27    42 1   
    47    27    43 1   
    48    28    29 1   
    49    28    44 1   
    50    28    45 1   
    51    29    46 1   
@<TRIPOS>SUBSTRUCTURE
     1 FP4         1 TEMP              0 ****  ****    0 ROOT
