@<TRIPOS>MOLECULE
FP4
   47    51     1     0     0
SMALL
No Charge or Current Charge


@<TRIPOS>ATOM
      1 C1          -0.1750    -4.3300    -1.3320 ca         1 FP4       0.295900
      2 N2           1.1000    -4.7600    -1.5620 nb         1 FP4      -0.641000
      3 C3           2.1250    -3.9260    -1.2280 ca         1 FP4       0.346900
      4 C4           1.8850    -2.6650    -0.6540 ca         1 FP4       0.031100
      5 C5           0.6010    -2.2530    -0.4110 ca         1 FP4      -0.120800
      6 C6          -0.4830    -3.0740    -0.7620 ca         1 FP4      -0.088000
      7 O7           2.8310    -1.7250    -0.3050 os         1 FP4      -0.117200
      8 C8           2.0750    -0.6510     0.1700 cc         1 FP4      -0.145700
      9 C9           0.7140    -0.9400     0.1520 cd         1 FP4       0.183800
     10 C10          2.7290     0.5990     0.5970 ca         1 FP4       0.233800
     11 N11          4.0840     0.5770     0.6460 nb         1 FP4      -0.183500
     12 C12          4.7140     1.7050     1.0300 ca         1 FP4       0.122400
     13 C13          3.9980     2.8630     1.3680 ca         1 FP4      -0.229000
     14 C14          2.5990     2.8020     1.2920 ca         1 FP4       0.122400
     15 N15          1.9660     1.6760     0.9090 nb         1 FP4      -0.183500
     16 N16         -0.2930    -0.1030     0.5640 nu         1 FP4      -0.810000
     17 C17         -1.5980    -0.3200     0.9860 ca         1 FP4       0.377000
     18 C18         -1.9490    -1.4980     1.6760 ca         1 FP4      -0.209000
     19 C19         -3.2750    -1.7110     2.1220 ca         1 FP4      -0.043000
     20 C20         -4.2630    -0.7340     1.8840 ca         1 FP4      -0.164000
     21 C21         -3.8790     0.4320     1.2130 ca         1 FP4      -0.010200
     22 C22         -2.6020     0.6370     0.7900 ca         1 FP4      -0.259900
     23 N23         -4.6440     1.5230     0.8530 na         1 FP4      -0.061400
     24 N24         -3.8570     2.4660     0.1730 nc         1 FP4      -0.522100
     25 C25         -2.6260     1.9300     0.1370 cd         1 FP4       0.369900
     26 C26         -1.4960     2.6820    -0.5260 c3         1 FP4      -0.085700
     27 C27         -1.1410     2.1330    -1.9290 c3         1 FP4      -0.081400
     28 C28          0.0810     2.8320    -2.5550 c3         1 FP4       0.164600
     29 O29          0.3320     2.2900    -3.8550 oh         1 FP4      -0.657000
     30 H1          -0.9730    -5.0120    -1.6230 h4         1 FP4       0.023100
     31 H3           3.1380    -4.2730    -1.4290 h4         1 FP4       0.039100
     32 H6          -1.5140    -2.7670    -0.6240 ha         1 FP4       0.138000
     33 H12          5.8010     1.6760     1.0660 h4         1 FP4       0.028100
     34 H13          4.5080     3.7720     1.6760 ha         1 FP4       0.139000
     35 H14          1.9770     3.6600     1.5380 h4         1 FP4       0.028100
     36 HN16         0.0020     0.8670     0.6360 hn         1 FP4       0.531000
     37 H18         -1.1920    -2.2490     1.8810 ha         1 FP4       0.127000
     38 H19         -3.5320    -2.6270     2.6500 ha         1 FP4       0.115000
     39 H20         -5.2890    -0.8830     2.2150 ha         1 FP4       0.123000
     40 H26         -1.7620     3.7420    -0.6230 hc         1 FP4       0.052200
     41 H26A        -0.6100     2.6610     0.1170 hc         1 FP4       0.052200
     42 H27         -0.9430     1.0570    -1.8670 hc         1 FP4       0.064200
     43 H27A        -2.0070     2.2580    -2.5900 hc         1 FP4       0.064200
     44 H28         -0.1130     3.9100    -2.6250 h1         1 FP4       0.013200
     45 H28A         0.9560     2.6850    -1.9080 h1         1 FP4       0.013200
     46 HO29         1.1130     2.7660    -4.2170 ho         1 FP4       0.441000
     47 HN23        -5.6380     1.6600     1.0330 hn         1 FP4       0.378000
@<TRIPOS>BOND
     1     1     2 ar  
     2     1     6 ar  
     3     1    30 1   
     4     2     3 ar  
     5     3     4 ar  
     6     3    31 1   
     7     4     5 ar  
     8     4     7 1   
     9     5     6 ar  
    10     5     9 1   
    11     6    32 1   
    12     7     8 1   
    13     8     9 2   
    14     8    10 1   
    15     9    16 1   
    16    10    11 ar  
    17    10    15 ar  
    18    11    12 ar  
    19    12    13 ar  
    20    12    33 1   
    21    13    14 ar  
    22    13    34 1   
    23    14    15 ar  
    24    14    35 1   
    25    16    17 1   
    26    16    36 1   
    27    17    18 ar  
    28    17    22 ar  
    29    18    19 ar  
    30    18    37 1   
    31    19    20 ar  
    32    19    38 1   
    33    20    21 ar  
    34    20    39 1   
    35    21    22 ar  
    36    21    23 1   
    37    22    25 1   
    38    23    24 1   
    39    23    47 1   
    40    24    25 2   
    41    25    26 1   
    42    26    27 1   
    43    26    40 1   
    44    26    41 1   
    45    27    28 1   
    46    27    42 1   
    47    27    43 1   
    48    28    29 1   
    49    28    44 1   
    50    28    45 1   
    51    29    46 1   
@<TRIPOS>SUBSTRUCTURE
     1 FP4         1 TEMP              0 ****  ****    0 ROOT
