@<TRIPOS>MOLECULE
FP6
   16    16     1     0     0
SMALL
No Charge or Current Charge


@<TRIPOS>ATOM
      1 OAA         -2.5450    -0.3900     0.0450 o          1 FP6      -0.609100
      2 CAB         -1.6810     0.4790     0.1110 c          1 FP6       0.602900
      3 CAC          1.9780     0.4510    -0.3600 c5         1 FP6      -0.094400
      4 CAD          1.7230    -0.9570     0.2370 c5         1 FP6      -0.094400
      5 CAE          0.7270     1.2310     0.1220 c5         1 FP6       0.098500
      6 CAF          0.2260    -1.1790    -0.1020 c5         1 FP6       0.098500
      7 NAG         -0.3110     0.1870     0.0480 n          1 FP6      -0.428800
      8 HAB         -1.8910     1.5590     0.2250 h5         1 FP6       0.006200
      9 HACA         2.0220     0.4130    -1.4550 hc         1 FP6       0.054450
     10 HAD          2.3700    -1.7280    -0.1960 hc         1 FP6       0.054450
     11 HADA         1.8860    -0.9610     1.3210 hc         1 FP6       0.054450
     12 HAE          0.8450     1.5860     1.1540 h1         1 FP6       0.050450
     13 HAEA         0.5030     2.0920    -0.5230 h1         1 FP6       0.050450
     14 HAF          0.0940    -1.5350    -1.1330 h1         1 FP6       0.050450
     15 HAFA        -0.2490    -1.8960     0.5810 h1         1 FP6       0.050450
     16 HAC          2.9140     0.9010    -0.0090 hc         1 FP6       0.054450
@<TRIPOS>BOND
     1     1     2 2   
     2     2     7 1   
     3     2     8 1   
     4     3     4 1   
     5     3     5 1   
     6     3     9 1   
     7     3    16 1   
     8     4     6 1   
     9     4    10 1   
    10     4    11 1   
    11     5     7 1   
    12     5    12 1   
    13     5    13 1   
    14     6     7 1   
    15     6    14 1   
    16     6    15 1   
@<TRIPOS>SUBSTRUCTURE
     1 FP6         1 TEMP              0 ****  ****    0 ROOT
