@<TRIPOS>MOLECULE
FP6
   16    16     1     0     0
SMALL
bcc


@<TRIPOS>ATOM
      1 OAA         -2.5090    -0.3810    -0.0470 o          1 FP6      -0.609100
      2 CAB         -1.6230     0.4580     0.0350 c          1 FP6       0.669900
      3 CAC          1.9610     0.4650    -0.3320 c5         1 FP6      -0.094400
      4 CAD          1.7210    -0.9540     0.1800 c5         1 FP6      -0.094400
      5 CAE          0.7230     1.2100     0.1490 c5         1 FP6       0.098500
      6 CAF          0.2220    -1.1600    -0.0260 c5         1 FP6       0.098500
      7 NAG         -0.3190     0.1910     0.0680 n          1 FP6      -0.495800
      8 HAB         -1.8380     1.5370     0.0900 h5         1 FP6       0.006200
      9 HACA         2.0030     0.4740    -1.4230 hc         1 FP6       0.054450
     10 HAD          2.3130    -1.7050    -0.3410 hc         1 FP6       0.054450
     11 HADA         1.9660    -1.0160     1.2420 hc         1 FP6       0.054450
     12 HAE          0.8520     1.5520     1.1800 h1         1 FP6       0.050450
     13 HAEA         0.4730     2.0750    -0.4650 h1         1 FP6       0.050450
     14 HAF          0.0060    -1.5850    -1.0100 h1         1 FP6       0.050450
     15 HAFA        -0.2210    -1.8170     0.7240 h1         1 FP6       0.050450
     16 HAC          2.8810     0.9090     0.0440 hc         1 FP6       0.054450
@<TRIPOS>BOND
     1     1     2 2   
     2     2     7 1   
     3     2     8 1   
     4     3     4 1   
     5     3     5 1   
     6     3     9 1   
     7     3    16 1   
     8     4     6 1   
     9     4    10 1   
    10     4    11 1   
    11     5     7 1   
    12     5    12 1   
    13     5    13 1   
    14     6     7 1   
    15     6    14 1   
    16     6    15 1   
@<TRIPOS>SUBSTRUCTURE
     1 FP6         1 TEMP              0 ****  ****    0 ROOT
