@<TRIPOS>MOLECULE
FP7
   44    46     1     0     0
SMALL
No Charge or Current Charge


@<TRIPOS>ATOM
      1 C1           3.2070     0.0180     0.6540 ca         1 FP7      -0.097500
      2 C2           2.4080    -1.0330     0.1760 ca         1 FP7      -0.092000
      3 C3           1.9620    -1.0360    -1.1590 ca         1 FP7      -0.116300
      4 C4           2.3330     0.0190    -2.0130 ca         1 FP7      -0.092000
      5 C5           3.1340     1.0700    -1.5350 ca         1 FP7      -0.097500
      6 C6           1.0340    -2.1440    -1.6520 c3         1 FP7       0.134300
      7 C7          -0.9070    -0.9330    -0.6220 cc         1 FP7      -0.020400
      8 C12         -2.6460     0.4460     0.4470 cd         1 FP7      -0.172800
      9 C11         -0.9680    -3.3730    -0.8400 c          1 FP7       0.553200
     10 N           -0.3120    -2.1390    -1.0160 n          1 FP7      -0.265000
     11 C            3.5730     1.0830    -0.1960 ca         1 FP7      -0.068300
     12 C17          4.4170     2.2470     0.3240 c3         1 FP7       0.217600
     13 O2           5.6520     1.7660     0.8610 oh         1 FP7      -0.655000
     14 C18          3.6800     3.0570     1.4080 c3         1 FP7      -0.130100
     15 C10         -2.2710    -3.2780    -0.1770 cc         1 FP7      -0.321200
     16 C9          -2.8410    -2.0980     0.2540 cd         1 FP7      -0.075000
     17 C8          -2.1280    -0.8610     0.0310 cd         1 FP7      -0.113200
     18 C15         -3.9650     0.7980     0.8600 cd         1 FP7       0.291300
     19 C16         -5.2190    -0.0380     0.9030 c3         1 FP7      -0.133400
     20 N1          -4.0670     2.0730     1.1860 nc         1 FP7      -0.364300
     21 O1          -2.7520     2.6090     0.9910 os         1 FP7      -0.071700
     22 C13         -1.9160     1.6120     0.5510 cc         1 FP7       0.192300
     23 C14         -0.4580     1.9740     0.4190 c3         1 FP7      -0.139400
     24 H1           3.5390     0.0100     1.6900 ha         1 FP7       0.120000
     25 H2           2.1210    -1.8390     0.8480 ha         1 FP7       0.119000
     26 H3           1.9900     0.0350    -3.0460 ha         1 FP7       0.119000
     27 H4           3.4040     1.8830    -2.2060 ha         1 FP7       0.120000
     28 H5           0.9010    -2.0610    -2.7390 h1         1 FP7       0.072200
     29 H6           1.5320    -3.1030    -1.4610 h1         1 FP7       0.072200
     30 H7          -0.3170    -0.0890    -0.9370 h4         1 FP7       0.199000
     31 H8           4.6250     2.9260    -0.5150 h1         1 FP7       0.033700
     32 H9           6.1670     2.5560     1.1350 ho         1 FP7       0.445000
     33 H10          4.2760     3.9220     1.7190 hc         1 FP7       0.044700
     34 H11          2.7230     3.4260     1.0200 hc         1 FP7       0.044700
     35 H12          3.4760     2.4410     2.2920 hc         1 FP7       0.044700
     36 H13         -2.7700    -4.2290    -0.0270 ha         1 FP7       0.210000
     37 H14         -3.7880    -2.1410     0.7740 ha         1 FP7       0.189000
     38 H15         -5.2210    -0.7010     1.7750 hc         1 FP7       0.057367
     39 H16         -6.1150     0.5900     0.9720 hc         1 FP7       0.057367
     40 H17         -5.3240    -0.6400    -0.0060 hc         1 FP7       0.057367
     41 H18         -0.2440     2.9150     0.9410 hc         1 FP7       0.063367
     42 H19          0.1860     1.2070     0.8650 hc         1 FP7       0.063367
     43 H20         -0.1760     2.1140    -0.6310 hc         1 FP7       0.063367
     44 O           -0.5010    -4.4430    -1.2040 o          1 FP7      -0.559000
@<TRIPOS>BOND
     1     1     2 ar  
     2     1    11 ar  
     3     1    24 1   
     4     2     3 ar  
     5     2    25 1   
     6     3     4 ar  
     7     3     6 1   
     8     4     5 ar  
     9     4    26 1   
    10     5    11 ar  
    11     5    27 1   
    12     6    10 1   
    13     6    28 1   
    14     6    29 1   
    15     7    10 1   
    16     7    17 2   
    17     7    30 1   
    18     8    17 1   
    19     8    18 1   
    20     8    22 2   
    21     9    10 1   
    22     9    15 1   
    23     9    44 2   
    24    11    12 1   
    25    12    13 1   
    26    12    14 1   
    27    12    31 1   
    28    13    32 1   
    29    14    33 1   
    30    14    34 1   
    31    14    35 1   
    32    15    16 2   
    33    15    36 1   
    34    16    17 1   
    35    16    37 1   
    36    18    19 1   
    37    18    20 2   
    38    19    38 1   
    39    19    39 1   
    40    19    40 1   
    41    20    21 1   
    42    21    22 1   
    43    22    23 1   
    44    23    41 1   
    45    23    42 1   
    46    23    43 1   
@<TRIPOS>SUBSTRUCTURE
     1 FP7         1 TEMP              0 ****  ****    0 ROOT
