@<TRIPOS>MOLECULE
FP7
   44    46     1     0     0
SMALL
bcc


@<TRIPOS>ATOM
      1 C1           4.0220    -0.5630     0.0760 ca         1 FP7      -0.115500
      2 C2           2.9800    -1.3450    -0.3990 ca         1 FP7      -0.110000
      3 C3           1.9170    -0.7710    -1.0900 ca         1 FP7      -0.116300
      4 C4           1.9250     0.6040    -1.2990 ca         1 FP7      -0.110000
      5 C5           2.9670     1.3860    -0.8230 ca         1 FP7      -0.115500
      6 C6           0.7680    -1.6030    -1.5940 c3         1 FP7       0.134300
      7 C7          -1.2970    -0.6620    -0.7440 cc         1 FP7       0.029600
      8 C12         -3.3060     0.5320    -0.0040 cd         1 FP7      -0.303400
      9 C11         -0.3450    -2.5780     0.3690 c          1 FP7       0.695700
     10 N           -0.3460    -1.6200    -0.6400 n          1 FP7      -0.332000
     11 C            4.0260     0.8150    -0.1260 ca         1 FP7      -0.068300
     12 C17          5.1220     1.6880     0.4310 c3         1 FP7       0.194400
     13 O2           6.3480     1.0070     0.2810 oh         1 FP7      -0.592800
     14 C18          4.8390     2.0360     1.8890 c3         1 FP7      -0.130100
     15 C10         -1.4540    -2.4830     1.2830 cc         1 FP7      -0.271200
     16 C9          -2.3920    -1.5090     1.1780 cd         1 FP7      -0.025000
     17 C8          -2.3290    -0.5460     0.1350 cd         1 FP7      -0.113200
     18 C15         -4.7280     0.4350    -0.0510 cd         1 FP7       0.356600
     19 C16         -5.5610    -0.7910     0.0560 c3         1 FP7      -0.133400
     20 N1          -5.2660     1.6070    -0.2210 nc         1 FP7      -0.364300
     21 O1          -4.2340     2.5000    -0.2860 os         1 FP7      -0.116100
     22 C13         -3.0700     1.8620    -0.1540 cc         1 FP7       0.302000
     23 C14         -1.8260     2.6630    -0.1960 c3         1 FP7      -0.139400
     24 H1           4.8370    -1.0370     0.6070 ha         1 FP7       0.138000
     25 H2           2.9940    -2.4140    -0.2290 ha         1 FP7       0.137000
     26 H3           1.1210     1.0750    -1.8530 ha         1 FP7       0.137000
     27 H4           2.9590     2.4540    -1.0080 ha         1 FP7       0.138000
     28 H5           0.3870    -1.1980    -2.5310 h1         1 FP7       0.072200
     29 H6           1.0750    -2.6280    -1.7870 h1         1 FP7       0.072200
     30 H7          -1.1960     0.0100    -1.5860 h4         1 FP7       0.149000
     31 H8           5.1310     2.6240    -0.1450 h1         1 FP7       0.033700
     32 H9           7.0290     1.5110     0.7390 ho         1 FP7       0.406000
     33 H10          5.6080     2.7000     2.2890 hc         1 FP7       0.044700
     34 H11          3.8810     2.5480     1.9840 hc         1 FP7       0.044700
     35 H12          4.8060     1.1360     2.5050 hc         1 FP7       0.044700
     36 H13         -1.4980    -3.2140     2.0780 ha         1 FP7       0.160000
     37 H14         -3.1930    -1.4590     1.9050 ha         1 FP7       0.139000
     38 H15         -5.5570    -1.1800     1.0740 hc         1 FP7       0.057367
     39 H16         -6.5930    -0.5870    -0.2220 hc         1 FP7       0.057367
     40 H17         -5.1740    -1.5750    -0.5950 hc         1 FP7       0.057367
     41 H18         -1.9540     3.6200     0.3090 hc         1 FP7       0.063367
     42 H19         -1.0180     2.1230     0.2960 hc         1 FP7       0.063367
     43 H20         -1.5160     2.8660    -1.2220 hc         1 FP7       0.063367
     44 O            0.5460    -3.4190     0.4370 o          1 FP7      -0.634500
@<TRIPOS>BOND
     1     1     2 ar  
     2     1    11 ar  
     3     1    24 1   
     4     2     3 ar  
     5     2    25 1   
     6     3     4 ar  
     7     3     6 1   
     8     4     5 ar  
     9     4    26 1   
    10     5    11 ar  
    11     5    27 1   
    12     6    10 1   
    13     6    28 1   
    14     6    29 1   
    15     7    10 1   
    16     7    17 2   
    17     7    30 1   
    18     8    17 1   
    19     8    18 1   
    20     8    22 2   
    21     9    10 1   
    22     9    15 1   
    23     9    44 2   
    24    11    12 1   
    25    12    13 1   
    26    12    14 1   
    27    12    31 1   
    28    13    32 1   
    29    14    33 1   
    30    14    34 1   
    31    14    35 1   
    32    15    16 2   
    33    15    36 1   
    34    16    17 1   
    35    16    37 1   
    36    18    19 1   
    37    18    20 2   
    38    19    38 1   
    39    19    39 1   
    40    19    40 1   
    41    20    21 1   
    42    21    22 1   
    43    22    23 1   
    44    23    41 1   
    45    23    42 1   
    46    23    43 1   
@<TRIPOS>SUBSTRUCTURE
     1 FP7         1 TEMP              0 ****  ****    0 ROOT
