@<TRIPOS>MOLECULE
FP9
   16    16     1     0     0
SMALL
No Charge or Current Charge


@<TRIPOS>ATOM
      1 C           11.9460     7.3530    33.2720 c          1 FP9       0.728000
      2 N           12.4620     9.0140    31.2910 n7         1 FP9      -0.795400
      3 O           10.7400     7.4680    33.4640 o          1 FP9      -0.726000
      4 CA          12.7910     8.5780    32.6980 c5         1 FP9       0.022500
      5 CB          12.5730     9.8540    33.5940 c5         1 FP9      -0.112400
      6 CD          11.4270    10.0570    31.4840 c5         1 FP9       0.123800
      7 FD          13.0680    11.7330    32.1320 f          1 FP9      -0.301000
      8 CG          12.0250    10.9330    32.6160 c5         1 FP9       0.132300
      9 OXT         12.5270     6.3000    33.5050 o          1 FP9      -0.726000
     10 HN          13.2880     9.4850    30.9050 hn         1 FP9       0.366000
     11 HA          13.8460     8.2700    32.7360 h1         1 FP9       0.037700
     12 HB          11.8600     9.6690    34.4040 hc         1 FP9       0.051200
     13 HBA         13.5040    10.1780    34.0740 hc         1 FP9       0.051200
     14 HD          11.2510    10.6340    30.5650 h1         1 FP9       0.053700
     15 HDA         10.4690     9.6150    31.7920 h1         1 FP9       0.053700
     16 HG          11.2800    11.5910    33.0820 h1         1 FP9       0.039700
@<TRIPOS>BOND
     1     1     3 1   
     2     1     4 1   
     3     1     9 1   
     4     2     4 1   
     5     2     6 1   
     6     2    10 1   
     7     4     5 1   
     8     4    11 1   
     9     5     8 1   
    10     5    12 1   
    11     5    13 1   
    12     6     8 1   
    13     6    14 1   
    14     6    15 1   
    15     7     8 1   
    16     8    16 1   
@<TRIPOS>SUBSTRUCTURE
     1 FP9         1 TEMP              0 ****  ****    0 ROOT
