@<TRIPOS>MOLECULE
FP9
   16    16     1     0     0
SMALL
bcc


@<TRIPOS>ATOM
      1 C           12.0140     7.3550    33.2380 c          1 FP9       0.938600
      2 N           12.2490     8.9880    31.3170 n7         1 FP9      -0.740200
      3 O           10.9140     7.0280    32.7580 o          1 FP9      -0.831300
      4 CA          12.7480     8.5690    32.6320 c5         1 FP9       0.022500
      5 CB          12.5750     9.7960    33.5820 c5         1 FP9      -0.112400
      6 CD          11.4070    10.1490    31.5560 c5         1 FP9       0.123800
      7 FD          13.1810    11.6130    32.1560 f          1 FP9      -0.282300
      8 CG          12.0830    10.9100    32.6820 c5         1 FP9       0.113600
      9 OXT         12.5980     6.8320    34.2110 o          1 FP9      -0.831300
     10 HN          13.0380     9.2890    30.7580 hn         1 FP9       0.310800
     11 HA          13.8070     8.3160    32.5400 h1         1 FP9       0.037700
     12 HB          11.8200     9.6070    34.3480 hc         1 FP9       0.051200
     13 HBA         13.4930    10.0690    34.1030 hc         1 FP9       0.051200
     14 HD          11.2660    10.7440    30.6530 h1         1 FP9       0.053700
     15 HDA         10.4180     9.8290    31.8980 h1         1 FP9       0.053700
     16 HG          11.4430    11.6390    33.1820 h1         1 FP9       0.039700
@<TRIPOS>BOND
     1     1     3 1   
     2     1     4 1   
     3     1     9 1   
     4     2     4 1   
     5     2     6 1   
     6     2    10 1   
     7     4     5 1   
     8     4    11 1   
     9     5     8 1   
    10     5    12 1   
    11     5    13 1   
    12     6     8 1   
    13     6    14 1   
    14     6    15 1   
    15     7     8 1   
    16     8    16 1   
@<TRIPOS>SUBSTRUCTURE
     1 FP9         1 TEMP              0 ****  ****    0 ROOT
