@<TRIPOS>MOLECULE
FPA
    7     6     1     0     0
SMALL
No Charge or Current Charge


@<TRIPOS>ATOM
      1 C1          -0.4110     0.5490    -0.0400 c3         1 FPA       0.204000
      2 F1          -0.0310     0.8220    -1.3130 f          1 FPA      -0.117500
      3 F2          -0.8990     1.7110     0.4620 f          1 FPA      -0.117500
      4 C2          -1.5000    -0.5910    -0.0020 c          1 FPA       0.723000
      5 O1          -1.4600    -1.4720    -0.8560 o          1 FPA      -0.654500
      6 O2          -2.3240    -0.5880     0.9090 o          1 FPA      -0.654500
      7 Br1          1.2370     0.0620     1.0100 br         1 FPA      -0.382000
@<TRIPOS>BOND
     1     1     2 1   
     2     1     3 1   
     3     1     4 1   
     4     1     7 1   
     5     4     5 1   
     6     4     6 1   
@<TRIPOS>SUBSTRUCTURE
     1 FPA         1 TEMP              0 ****  ****    0 ROOT
