@<TRIPOS>MOLECULE
FPA
    7     6     1     0     0
SMALL
abcg2


@<TRIPOS>ATOM
      1 C1          -0.4340     0.5300     0.0340 c3         1 FPA       0.204000
      2 F1          -0.5920     1.3320    -1.0330 f          1 FPA      -0.117500
      3 F2          -0.6090     1.3020     1.1190 f          1 FPA      -0.117500
      4 C2          -1.4840    -0.6310     0.0090 c          1 FPA       0.723000
      5 O1          -1.0630    -1.7860    -0.0090 o          1 FPA      -0.654500
      6 O2          -2.6360    -0.1840     0.0100 o          1 FPA      -0.654500
      7 BR1          1.4300    -0.0710     0.0400 br         1 FPA      -0.382000
@<TRIPOS>BOND
     1     1     2 1   
     2     1     3 1   
     3     1     4 1   
     4     1     7 1   
     5     4     5 1   
     6     4     6 1   
@<TRIPOS>SUBSTRUCTURE
     1 FPA         1 TEMP              0 ****  ****    0 ROOT
