@<TRIPOS>MOLECULE
FPB
   54    56     1     0     0
SMALL
No Charge or Current Charge


@<TRIPOS>ATOM
      1 O16          0.2660     1.2580     0.6590 o          1 FPB      -0.619100
      2 C12          1.0320     0.3150     0.8090 c          1 FPB       0.602100
      3 C11          1.3600    -0.2380     2.2100 c3         1 FPB      -0.199400
      4 C10          0.3810     0.1490     3.3380 c3         1 FPB       0.178500
      5 N18          0.5180     1.5840     3.6450 n8         1 FPB      -0.988200
      6 C9           0.5880    -0.7170     4.6100 c3         1 FPB      -0.022100
      7 C3          -0.4270    -0.4300     5.7190 ca         1 FPB      -0.099300
      8 C5          -0.0680     0.2740     6.8910 ca         1 FPB       0.191000
      9 F8           1.1980     0.7200     7.0690 f          1 FPB      -0.184000
     10 C7          -1.0180     0.5200     7.8960 ca         1 FPB      -0.153000
     11 C6          -2.3390     0.0650     7.7440 ca         1 FPB      -0.086000
     12 C4          -2.7050    -0.6370     6.5840 ca         1 FPB      -0.126000
     13 C2          -1.7550    -0.8840     5.5770 ca         1 FPB      -0.085000
     14 N13          1.6090    -0.3290    -0.3080 n          1 FPB      -0.414800
     15 C14          1.3000     0.0840    -1.7030 c5         1 FPB       0.091700
     16 C21          2.3360    -0.7550    -2.5070 c5         1 FPB      -0.093400
     17 C20          3.5550    -0.7440    -1.5610 c5         1 FPB      -0.096400
     18 C19          2.8810    -1.0850    -0.2110 c5         1 FPB       0.101000
     19 C15         -0.1610    -0.2140    -2.1380 c3         1 FPB       0.089000
     20 N17         -0.4610     0.1480    -3.5320 ns         1 FPB      -0.503900
     21 C22         -0.4390    -0.7230    -4.6010 c          1 FPB       0.614700
     22 O1          -0.1990    -1.9130    -4.4460 o          1 FPB      -0.606100
     23 C25         -0.7300    -0.1320    -5.9670 ca         1 FPB      -0.152600
     24 C27         -0.7300    -0.9760    -7.1020 ca         1 FPB      -0.073000
     25 C28         -0.9930    -0.4610    -8.3830 ca         1 FPB      -0.119500
     26 C26         -1.2610     0.9060    -8.5520 ca         1 FPB      -0.089000
     27 C24         -1.2650     1.7580    -7.4360 ca         1 FPB      -0.119500
     28 C23         -1.0010     1.2480    -6.1530 ca         1 FPB      -0.073000
     29 H111         1.4460    -1.3270     2.1200 hc         1 FPB       0.061700
     30 H112         2.3900     0.0440     2.4570 hc         1 FPB       0.061700
     31 H10         -0.6440    -0.0310     2.9780 h1         1 FPB       0.079700
     32 H181         1.4860     1.7750     3.9220 hn         1 FPB       0.402500
     33 H182         0.4120     2.0970     2.7610 hn         1 FPB       0.402500
     34 H9C1         1.6160    -0.5890     4.9700 hc         1 FPB       0.048200
     35 H9C2         0.5090    -1.7740     4.3260 hc         1 FPB       0.048200
     36 H7          -0.7280     1.0630     8.7920 ha         1 FPB       0.129000
     37 H6          -3.0750     0.2550     8.5220 ha         1 FPB       0.115000
     38 H4          -3.7270    -0.9920     6.4640 ha         1 FPB       0.116000
     39 H2          -2.0510    -1.4310     4.6850 ha         1 FPB       0.111000
     40 H14          1.4940     1.1590    -1.8270 h1         1 FPB       0.061700
     41 H211         1.9840    -1.7810    -2.6760 hc         1 FPB       0.064700
     42 H212         2.5570    -0.3200    -3.4880 hc         1 FPB       0.064700
     43 H201         4.3230    -1.4730    -1.8430 hc         1 FPB       0.055700
     44 H202         4.0290     0.2440    -1.5320 hc         1 FPB       0.055700
     45 H191         2.6840    -2.1610    -0.1170 h1         1 FPB       0.049700
     46 H192         3.5080    -0.7700     0.6330 h1         1 FPB       0.049700
     47 H151        -0.8460     0.3470    -1.4900 h1         1 FPB       0.073200
     48 H152        -0.3700    -1.2800    -1.9810 h1         1 FPB       0.073200
     49 H17         -0.6780     1.1140    -3.7380 hn         1 FPB       0.317500
     50 H27         -0.5240    -2.0390    -6.9960 ha         1 FPB       0.122500
     51 H28         -0.9900    -1.1230    -9.2460 ha         1 FPB       0.117000
     52 H26         -1.4660     1.3040    -9.5430 ha         1 FPB       0.115000
     53 H24         -1.4720     2.8180    -7.5660 ha         1 FPB       0.117000
     54 H23         -1.0130     1.9410    -5.3160 ha         1 FPB       0.122500
@<TRIPOS>BOND
     1     1     2 2   
     2     2     3 1   
     3     2    14 1   
     4     3     4 1   
     5     3    29 1   
     6     3    30 1   
     7     4     5 1   
     8     4     6 1   
     9     4    31 1   
    10     5    32 1   
    11     5    33 1   
    12     6     7 1   
    13     6    34 1   
    14     6    35 1   
    15     7     8 ar  
    16     7    13 ar  
    17     8     9 1   
    18     8    10 ar  
    19    10    11 ar  
    20    10    36 1   
    21    11    12 ar  
    22    11    37 1   
    23    12    13 ar  
    24    12    38 1   
    25    13    39 1   
    26    14    15 1   
    27    14    18 1   
    28    15    16 1   
    29    15    19 1   
    30    15    40 1   
    31    16    17 1   
    32    16    41 1   
    33    16    42 1   
    34    17    18 1   
    35    17    43 1   
    36    17    44 1   
    37    18    45 1   
    38    18    46 1   
    39    19    20 1   
    40    19    47 1   
    41    19    48 1   
    42    20    21 1   
    43    20    49 1   
    44    21    22 2   
    45    21    23 1   
    46    23    24 ar  
    47    23    28 ar  
    48    24    25 ar  
    49    24    50 1   
    50    25    26 ar  
    51    25    51 1   
    52    26    27 ar  
    53    26    52 1   
    54    27    28 ar  
    55    27    53 1   
    56    28    54 1   
@<TRIPOS>SUBSTRUCTURE
     1 FPB         1 TEMP              0 ****  ****    0 ROOT
