@<TRIPOS>MOLECULE
FPB
   54    56     1     0     0
SMALL
abcg2


@<TRIPOS>ATOM
      1 O16         -0.1970     0.7920     0.6010 o          1 FPB      -0.619100
      2 C12          0.7710     0.0520     0.7530 c          1 FPB       0.602100
      3 C11          1.1830    -0.4530     2.1230 c3         1 FPB      -0.199400
      4 C10          0.2690     0.0340     3.2510 c3         1 FPB       0.178500
      5 N18          0.3570     1.4570     3.5270 n8         1 FPB      -0.988200
      6 C9           0.5700    -0.7600     4.5280 c3         1 FPB      -0.022100
      7 C3          -0.3710    -0.4130     5.6450 ca         1 FPB      -0.099300
      8 C5          -0.0730     0.5380     6.6090 ca         1 FPB       0.191000
      9 F8           1.1270     1.1460     6.5750 f          1 FPB      -0.184000
     10 C7          -0.9450     0.8850     7.6250 ca         1 FPB      -0.153000
     11 C6          -2.1840     0.2620     7.6850 ca         1 FPB      -0.086000
     12 C4          -2.5230    -0.6950     6.7390 ca         1 FPB      -0.126000
     13 C2          -1.6210    -1.0220     5.7370 ca         1 FPB      -0.085000
     14 N13          1.4990    -0.3710    -0.2970 n          1 FPB      -0.414800
     15 C14          1.1960     0.0640    -1.6630 c5         1 FPB       0.091700
     16 C21          2.4240    -0.3850    -2.4680 c5         1 FPB      -0.093400
     17 C20          3.5230    -0.5450    -1.4260 c5         1 FPB      -0.096400
     18 C19          2.7640    -1.0960    -0.2290 c5         1 FPB       0.101000
     19 C15         -0.1060    -0.5480    -2.1830 c3         1 FPB       0.089000
     20 N17         -0.4010    -0.0900    -3.5210 ns         1 FPB      -0.503900
     21 C22         -0.2670    -0.8330    -4.6330 c          1 FPB       0.614700
     22 O1           0.0840    -2.0060    -4.6250 o          1 FPB      -0.606100
     23 C25         -0.5980    -0.1400    -5.9180 ca         1 FPB      -0.152600
     24 C27         -1.0370    -0.9150    -6.9890 ca         1 FPB      -0.073000
     25 C28         -1.3540    -0.3210    -8.2010 ca         1 FPB      -0.119500
     26 C26         -1.2160     1.0520    -8.3620 ca         1 FPB      -0.089000
     27 C24         -0.7570     1.8280    -7.3060 ca         1 FPB      -0.119500
     28 C23         -0.4530     1.2360    -6.0890 ca         1 FPB      -0.073000
     29 H111         1.2060    -1.5480     2.0940 hc         1 FPB       0.061700
     30 H112         2.2120    -0.1440     2.3380 hc         1 FPB       0.061700
     31 H10         -0.7670    -0.1790     2.9710 h1         1 FPB       0.079700
     32 H181         1.3120     1.7010     3.7610 hn         1 FPB       0.402500
     33 H182         0.1290     1.9710     2.6860 hn         1 FPB       0.402500
     34 H9C1         1.6090    -0.5980     4.8240 hc         1 FPB       0.048200
     35 H9C2         0.4750    -1.8260     4.3080 hc         1 FPB       0.048200
     36 H7          -0.6580     1.6310     8.3550 ha         1 FPB       0.129000
     37 H6          -2.8780     0.5260     8.4720 ha         1 FPB       0.115000
     38 H4          -3.4860    -1.1870     6.7820 ha         1 FPB       0.116000
     39 H2          -1.8850    -1.7720     5.0000 ha         1 FPB       0.111000
     40 H14          1.1040     1.1550    -1.6790 h1         1 FPB       0.061700
     41 H211         2.2260    -1.3490    -2.9430 hc         1 FPB       0.064700
     42 H212         2.6730     0.3240    -3.2560 hc         1 FPB       0.064700
     43 H201         4.3270    -1.2050    -1.7510 hc         1 FPB       0.055700
     44 H202         3.9620     0.4220    -1.1720 hc         1 FPB       0.055700
     45 H191         2.6040    -2.1740    -0.3270 h1         1 FPB       0.049700
     46 H192         3.2780    -0.9190     0.7130 h1         1 FPB       0.049700
     47 H151        -0.9380    -0.2710    -1.5370 h1         1 FPB       0.073200
     48 H152        -0.0340    -1.6350    -2.1840 h1         1 FPB       0.073200
     49 H17         -0.7940     0.8330    -3.6030 hn         1 FPB       0.317500
     50 H27         -1.1410    -1.9860    -6.8710 ha         1 FPB       0.122500
     51 H28         -1.7080    -0.9300    -9.0230 ha         1 FPB       0.117000
     52 H26         -1.4600     1.5140    -9.3090 ha         1 FPB       0.115000
     53 H24         -0.6310     2.8950    -7.4300 ha         1 FPB       0.117000
     54 H23         -0.0760     1.8580    -5.2860 ha         1 FPB       0.122500
@<TRIPOS>BOND
     1     1     2 2   
     2     2     3 1   
     3     2    14 1   
     4     3     4 1   
     5     3    29 1   
     6     3    30 1   
     7     4     5 1   
     8     4     6 1   
     9     4    31 1   
    10     5    32 1   
    11     5    33 1   
    12     6     7 1   
    13     6    34 1   
    14     6    35 1   
    15     7     8 ar  
    16     7    13 ar  
    17     8     9 1   
    18     8    10 ar  
    19    10    11 ar  
    20    10    36 1   
    21    11    12 ar  
    22    11    37 1   
    23    12    13 ar  
    24    12    38 1   
    25    13    39 1   
    26    14    15 1   
    27    14    18 1   
    28    15    16 1   
    29    15    19 1   
    30    15    40 1   
    31    16    17 1   
    32    16    41 1   
    33    16    42 1   
    34    17    18 1   
    35    17    43 1   
    36    17    44 1   
    37    18    45 1   
    38    18    46 1   
    39    19    20 1   
    40    19    47 1   
    41    19    48 1   
    42    20    21 1   
    43    20    49 1   
    44    21    22 2   
    45    21    23 1   
    46    23    24 ar  
    47    23    28 ar  
    48    24    25 ar  
    49    24    50 1   
    50    25    26 ar  
    51    25    51 1   
    52    26    27 ar  
    53    26    52 1   
    54    27    28 ar  
    55    27    53 1   
    56    28    54 1   
@<TRIPOS>SUBSTRUCTURE
     1 FPB         1 TEMP              0 ****  ****    0 ROOT
