@<TRIPOS>MOLECULE
FPH
   35    38     1     0     0
SMALL
No Charge or Current Charge


@<TRIPOS>ATOM
      1 O12          2.2150    -0.0820     2.8650 oh         1 FPH      -0.462000
      2 N07          1.0420     0.2390     2.1830 na         1 FPH       0.090300
      3 C01         -0.2120     0.1270     2.7540 ca         1 FPH      -0.087200
      4 C06         -0.5770     0.1480     4.1070 ca         1 FPH      -0.075000
      5 C05         -1.9570     0.0310     4.3780 ca         1 FPH      -0.147000
      6 C04         -2.8710    -0.0940     3.3030 ca         1 FPH       0.318900
      7 N03         -2.4890    -0.1090     2.0000 nb         1 FPH      -0.619000
      8 C02         -1.1620    -0.0030     1.7810 ca         1 FPH       0.344800
      9 C08         -0.4740     0.0210     0.5200 cc         1 FPH      -0.166000
     10 C24         -1.0720    -0.0100    -0.8130 ca         1 FPH      -0.033800
     11 C25         -1.9790    -1.0310    -1.1580 ca         1 FPH      -0.065000
     12 C26         -2.5610    -1.0590    -2.4390 ca         1 FPH      -0.156500
     13 C27         -2.2440    -0.0610    -3.3720 ca         1 FPH       0.172000
     14 F32         -2.8030    -0.0880    -4.6010 f          1 FPH      -0.180000
     15 C28         -1.3520     0.9670    -3.0340 ca         1 FPH      -0.156500
     16 C29         -0.7700     0.9960    -1.7540 ca         1 FPH      -0.065000
     17 C13          0.9000     0.1600     0.7690 cd         1 FPH       0.011700
     18 C14          2.0320     0.0670    -0.1920 ca         1 FPH      -0.015800
     19 C19          3.2870     0.6400     0.1040 ca         1 FPH      -0.138000
     20 C18          4.3420     0.5410    -0.8190 ca         1 FPH       0.329900
     21 N17          4.2270    -0.0950    -2.0050 nb         1 FPH      -0.654000
     22 C16          3.0320    -0.6570    -2.2960 ca         1 FPH       0.329900
     23 C15          1.9270    -0.6020    -1.4310 ca         1 FPH      -0.138000
     24 H12          2.2490    -1.0620     2.8700 ho         1 FPH       0.452000
     25 H06          0.1590     0.2540     4.9020 ha         1 FPH       0.130000
     26 H05         -2.3230     0.0390     5.4010 ha         1 FPH       0.125000
     27 H04         -3.9400    -0.1820     3.4950 h4         1 FPH       0.022100
     28 H25         -2.2270    -1.8060    -0.4360 ha         1 FPH       0.124000
     29 H26         -3.2570    -1.8500    -2.7060 ha         1 FPH       0.132000
     30 H28         -1.1140     1.7400    -3.7600 ha         1 FPH       0.132000
     31 H29         -0.0830     1.7970    -1.4920 ha         1 FPH       0.124000
     32 H19          3.4520     1.1900     1.0250 ha         1 FPH       0.136500
     33 H18          5.3100     0.9920    -0.6030 h4         1 FPH       0.023600
     34 H16          2.9620    -1.1780    -3.2500 h4         1 FPH       0.023600
     35 H15          1.0190    -1.1150    -1.7260 ha         1 FPH       0.136500
@<TRIPOS>BOND
     1     1     2 1   
     2     1    24 1   
     3     2     3 1   
     4     2    17 1   
     5     3     4 ar  
     6     3     8 ar  
     7     4     5 ar  
     8     4    25 1   
     9     5     6 ar  
    10     5    26 1   
    11     6     7 ar  
    12     6    27 1   
    13     7     8 ar  
    14     8     9 1   
    15     9    10 1   
    16     9    17 2   
    17    10    11 ar  
    18    10    16 ar  
    19    11    12 ar  
    20    11    28 1   
    21    12    13 ar  
    22    12    29 1   
    23    13    14 1   
    24    13    15 ar  
    25    15    16 ar  
    26    15    30 1   
    27    16    31 1   
    28    17    18 1   
    29    18    19 ar  
    30    18    23 ar  
    31    19    20 ar  
    32    19    32 1   
    33    20    21 ar  
    34    20    33 1   
    35    21    22 ar  
    36    22    23 ar  
    37    22    34 1   
    38    23    35 1   
@<TRIPOS>SUBSTRUCTURE
     1 FPH         1 TEMP              0 ****  ****    0 ROOT
