@<TRIPOS>MOLECULE
FPH
   35    38     1     0     0
SMALL
abcg2


@<TRIPOS>ATOM
      1 O12          2.2170     0.0330     2.7700 oh         1 FPH      -0.462000
      2 N07          1.0330     0.0270     2.1230 na         1 FPH       0.090300
      3 C01         -0.1710    -0.0270     2.7450 ca         1 FPH      -0.087200
      4 C06         -0.5320    -0.0560     4.0840 ca         1 FPH      -0.075000
      5 C05         -1.8890    -0.1020     4.3320 ca         1 FPH      -0.147000
      6 C04         -2.8010    -0.1130     3.2630 ca         1 FPH       0.318900
      7 N03         -2.4570    -0.0890     1.9890 nb         1 FPH      -0.619000
      8 C02         -1.1480    -0.0570     1.7280 ca         1 FPH       0.344800
      9 C08         -0.4680    -0.0250     0.4690 cc         1 FPH      -0.166000
     10 C24         -1.0930     0.0170    -0.8550 ca         1 FPH      -0.033800
     11 C25         -2.1820    -0.8050    -1.1510 ca         1 FPH      -0.065000
     12 C26         -2.7820    -0.7830    -2.4010 ca         1 FPH      -0.156500
     13 C27         -2.2800     0.0740    -3.3610 ca         1 FPH       0.172000
     14 F32         -2.8500     0.0970    -4.5770 f          1 FPH      -0.180000
     15 C28         -1.2120     0.9120    -3.1060 ca         1 FPH      -0.156500
     16 C29         -0.6290     0.8810    -1.8490 ca         1 FPH      -0.065000
     17 C13          0.8790     0.0160     0.7600 cd         1 FPH       0.011700
     18 C14          2.0310     0.0070    -0.1420 ca         1 FPH      -0.015800
     19 C19          3.0900     0.9020    -0.0080 ca         1 FPH      -0.138000
     20 C18          4.1370     0.8350    -0.9140 ca         1 FPH       0.329900
     21 N17          4.1930    -0.0380    -1.9130 nb         1 FPH      -0.654000
     22 C16          3.1820    -0.8900    -2.0370 ca         1 FPH       0.329900
     23 C15          2.0890    -0.9110    -1.1870 ca         1 FPH      -0.138000
     24 H12          2.4790    -0.8930     2.8880 ho         1 FPH       0.452000
     25 H06          0.1980    -0.0420     4.8820 ha         1 FPH       0.130000
     26 H05         -2.2620    -0.1280     5.3460 ha         1 FPH       0.125000
     27 H04         -3.8640    -0.1430     3.4760 h4         1 FPH       0.022100
     28 H25         -2.5660    -1.4820    -0.4000 ha         1 FPH       0.124000
     29 H26         -3.6230    -1.4270    -2.6220 ha         1 FPH       0.132000
     30 H28         -0.8430     1.5840    -3.8700 ha         1 FPH       0.132000
     31 H29          0.1950     1.5520    -1.6450 ha         1 FPH       0.124000
     32 H19          3.1020     1.6540     0.7680 ha         1 FPH       0.136500
     33 H18          4.9670     1.5260    -0.8260 h4         1 FPH       0.023600
     34 H16          3.2420    -1.6000    -2.8550 h4         1 FPH       0.023600
     35 H15          1.3040    -1.6400    -1.3350 ha         1 FPH       0.136500
@<TRIPOS>BOND
     1     1     2 1   
     2     1    24 1   
     3     2     3 1   
     4     2    17 1   
     5     3     4 ar  
     6     3     8 ar  
     7     4     5 ar  
     8     4    25 1   
     9     5     6 ar  
    10     5    26 1   
    11     6     7 ar  
    12     6    27 1   
    13     7     8 ar  
    14     8     9 1   
    15     9    10 1   
    16     9    17 2   
    17    10    11 ar  
    18    10    16 ar  
    19    11    12 ar  
    20    11    28 1   
    21    12    13 ar  
    22    12    29 1   
    23    13    14 1   
    24    13    15 ar  
    25    15    16 ar  
    26    15    30 1   
    27    16    31 1   
    28    17    18 1   
    29    18    19 ar  
    30    18    23 ar  
    31    19    20 ar  
    32    19    32 1   
    33    20    21 ar  
    34    20    33 1   
    35    21    22 ar  
    36    22    23 ar  
    37    22    34 1   
    38    23    35 1   
@<TRIPOS>SUBSTRUCTURE
     1 FPH         1 TEMP              0 ****  ****    0 ROOT
