@<TRIPOS>MOLECULE
FPI
   19    19     1     0     0
SMALL
No Charge or Current Charge


@<TRIPOS>ATOM
      1 N            0.2630    -0.0290    -0.6590 n          1 FPI      -0.419800
      2 C2           1.3590    -0.1520     0.3430 c6         1 FPI       0.097000
      3 C3           1.0240     0.4220     1.7390 c6         1 FPI      -0.096900
      4 C4          -0.3390    -0.0830     2.2460 c6         1 FPI      -0.073400
      5 C5          -1.4290     0.3070     1.2320 c6         1 FPI      -0.096900
      6 C6          -1.1300    -0.2640    -0.1750 c6         1 FPI       0.097000
      7 C7           0.5730    -0.1600    -2.0240 c          1 FPI       0.604900
      8 O           -0.2830    -0.2670    -2.8960 o          1 FPI      -0.606100
      9 H21          1.6030    -1.2190     0.4510 h1         1 FPI       0.052450
     10 H22          2.2610     0.3470    -0.0390 h1         1 FPI       0.052450
     11 H31          1.8160     0.1530     2.4510 hc         1 FPI       0.049200
     12 H32          1.0130     1.5200     1.6870 hc         1 FPI       0.049200
     13 H41         -0.3150    -1.1740     2.3780 hc         1 FPI       0.042200
     14 H42         -0.5620     0.3540     3.2280 hc         1 FPI       0.042200
     15 H51         -2.4090    -0.0480     1.5750 hc         1 FPI       0.049200
     16 H52         -1.4980     1.4020     1.1710 hc         1 FPI       0.049200
     17 H61         -1.8480     0.1680    -0.8870 h1         1 FPI       0.052450
     18 H62         -1.3070    -1.3490    -0.1600 h1         1 FPI       0.052450
     19 H7           1.6610    -0.1530    -2.2250 h5         1 FPI       0.003200
@<TRIPOS>BOND
     1     1     2 1   
     2     1     6 1   
     3     1     7 1   
     4     2     3 1   
     5     2     9 1   
     6     2    10 1   
     7     3     4 1   
     8     3    11 1   
     9     3    12 1   
    10     4     5 1   
    11     4    13 1   
    12     4    14 1   
    13     5     6 1   
    14     5    15 1   
    15     5    16 1   
    16     6    17 1   
    17     6    18 1   
    18     7     8 2   
    19     7    19 1   
@<TRIPOS>SUBSTRUCTURE
     1 FPI         1 TEMP              0 ****  ****    0 ROOT
