@<TRIPOS>MOLECULE
FPI
   19    19     1     0     0
SMALL
bcc


@<TRIPOS>ATOM
      1 N            0.2570    -0.2650    -0.6020 n          1 FPI      -0.486800
      2 C2           1.3180    -0.4430     0.3710 c6         1 FPI       0.097000
      3 C3           1.0540     0.3960     1.6150 c6         1 FPI      -0.096900
      4 C4          -0.3330     0.1030     2.1800 c6         1 FPI      -0.073400
      5 C5          -1.4040     0.2760     1.1070 c6         1 FPI      -0.096900
      6 C6          -1.0830    -0.5590    -0.1260 c6         1 FPI       0.097000
      7 C7           0.4960     0.2430    -1.8170 c          1 FPI       0.671900
      8 O           -0.3370     0.4720    -2.6790 o          1 FPI      -0.606100
      9 H21          1.3770    -1.5010     0.6450 h1         1 FPI       0.052450
     10 H22          2.2700    -0.1740    -0.0870 h1         1 FPI       0.052450
     11 H31          1.8260     0.1850     2.3580 hc         1 FPI       0.049200
     12 H32          1.1380     1.4560     1.3590 hc         1 FPI       0.049200
     13 H41         -0.3590    -0.9250     2.5570 hc         1 FPI       0.042200
     14 H42         -0.5410     0.7530     3.0310 hc         1 FPI       0.042200
     15 H51         -2.3840    -0.0180     1.4900 hc         1 FPI       0.049200
     16 H52         -1.4760     1.3280     0.8190 hc         1 FPI       0.049200
     17 H61         -1.7930    -0.3700    -0.9280 h1         1 FPI       0.052450
     18 H62         -1.1410    -1.6250     0.1190 h1         1 FPI       0.052450
     19 H7           1.5680     0.4400    -1.9770 h5         1 FPI       0.003200
@<TRIPOS>BOND
     1     1     2 1   
     2     1     6 1   
     3     1     7 1   
     4     2     3 1   
     5     2     9 1   
     6     2    10 1   
     7     3     4 1   
     8     3    11 1   
     9     3    12 1   
    10     4     5 1   
    11     4    13 1   
    12     4    14 1   
    13     5     6 1   
    14     5    15 1   
    15     5    16 1   
    16     6    17 1   
    17     6    18 1   
    18     7     8 2   
    19     7    19 1   
@<TRIPOS>SUBSTRUCTURE
     1 FPI         1 TEMP              0 ****  ****    0 ROOT
