@<TRIPOS>MOLECULE
FPK
   18    18     1     0     0
SMALL
No Charge or Current Charge


@<TRIPOS>ATOM
      1 C          138.9710   117.5100    40.8160 c          1 FPK       0.728000
      2 N          139.7750   115.0320    40.9060 n          1 FPK      -0.384800
      3 OXT        138.1900   118.2090    41.4490 o          1 FPK      -0.721500
      4 CA         139.7400   116.3680    41.5730 c5         1 FPK      -0.033300
      5 CB         141.2600   116.7120    41.6500 c5         1 FPK      -0.077400
      6 CC         141.8980   115.3130    41.8410 c5         1 FPK      -0.098400
      7 CD         141.1270   114.4630    40.7980 c5         1 FPK       0.108000
      8 CE         138.6430   114.3690    40.4060 c          1 FPK       0.608900
      9 OE         137.5030   114.8080    40.5190 o          1 FPK      -0.621100
     10 O          139.1590   117.6800    39.6170 o          1 FPK      -0.721500
     11 HA         139.3120   116.2670    42.5790 h1         1 FPK       0.048700
     12 HB         141.6200   117.1750    40.7230 hc         1 FPK       0.045700
     13 HBA        141.4910   117.4010    42.4700 hc         1 FPK       0.045700
     14 HC         142.9790   115.3110    41.6660 hc         1 FPK       0.028200
     15 HCA        141.7290   114.9390    42.8580 hc         1 FPK       0.028200
     16 HD         141.1500   113.3920    41.0400 h1         1 FPK       0.029200
     17 HDA        141.5260   114.6050    39.7850 h1         1 FPK       0.029200
     18 HE         138.8880   113.4080    39.9170 h5         1 FPK      -0.038800
@<TRIPOS>BOND
     1     1     3 1   
     2     1     4 1   
     3     1    10 1   
     4     2     4 1   
     5     2     7 1   
     6     2     8 1   
     7     4     5 1   
     8     4    11 1   
     9     5     6 1   
    10     5    12 1   
    11     5    13 1   
    12     6     7 1   
    13     6    14 1   
    14     6    15 1   
    15     7    16 1   
    16     7    17 1   
    17     8     9 2   
    18     8    18 1   
@<TRIPOS>SUBSTRUCTURE
     1 FPK         1 TEMP              0 ****  ****    0 ROOT
