@<TRIPOS>MOLECULE
FPK
   18    18     1     0     0
SMALL
abcg2


@<TRIPOS>ATOM
      1 C          139.0720   117.4620    40.6520 c          1 FPK       0.728000
      2 N          139.7560   115.0520    40.9000 n          1 FPK      -0.384800
      3 OXT        138.5640   118.4130    41.2760 o          1 FPK      -0.721500
      4 CA         139.7000   116.3600    41.5350 c5         1 FPK      -0.033300
      5 CB         141.1830   116.6720    41.8170 c5         1 FPK      -0.077400
      6 CC         141.8800   115.3140    41.7830 c5         1 FPK      -0.098400
      7 CD         141.1140   114.5810    40.6920 c5         1 FPK       0.108000
      8 CE         138.6670   114.3550    40.5870 c          1 FPK       0.608900
      9 OE         137.5150   114.7180    40.7800 o          1 FPK      -0.621100
     10 O          139.1860   117.3300    39.4210 o          1 FPK      -0.721500
     11 HA         139.1440   116.2790    42.4740 h1         1 FPK       0.048700
     12 HB         141.5910   117.3060    41.0260 hc         1 FPK       0.045700
     13 HBA        141.3160   117.2000    42.7600 hc         1 FPK       0.045700
     14 HC         142.9460   115.3880    41.5660 hc         1 FPK       0.028200
     15 HCA        141.7660   114.7930    42.7360 hc         1 FPK       0.028200
     16 HD         141.1730   113.4950    40.7720 h1         1 FPK       0.029200
     17 HDA        141.4830   114.8680    39.7020 h1         1 FPK       0.029200
     18 HE         138.9040   113.3770    40.1340 h5         1 FPK      -0.038800
@<TRIPOS>BOND
     1     1     3 1   
     2     1     4 1   
     3     1    10 1   
     4     2     4 1   
     5     2     7 1   
     6     2     8 1   
     7     4     5 1   
     8     4    11 1   
     9     5     6 1   
    10     5    12 1   
    11     5    13 1   
    12     6     7 1   
    13     6    14 1   
    14     6    15 1   
    15     7    16 1   
    16     7    17 1   
    17     8     9 2   
    18     8    18 1   
@<TRIPOS>SUBSTRUCTURE
     1 FPK         1 TEMP              0 ****  ****    0 ROOT
