@<TRIPOS>MOLECULE
FPL
   24    25     1     0     0
SMALL
No Charge or Current Charge


@<TRIPOS>ATOM
      1 C            1.7820    -1.1280     0.0790 ca         1 FPL       0.171100
      2 F            4.3130     1.3890     0.8740 f          1 FPL      -0.172000
      3 O            1.6520    -2.4850     0.0500 oh         1 FPL      -0.523100
      4 C1           3.0010    -0.5570     0.4710 ca         1 FPL      -0.193000
      5 O1          -0.4940    -0.8900    -0.6740 os         1 FPL      -0.259200
      6 C2           3.1380     0.8380     0.4980 ca         1 FPL       0.210000
      7 C3           2.0660     1.6670     0.1310 ca         1 FPL      -0.185000
      8 C4           0.8410     1.0980    -0.2630 ca         1 FPL      -0.052000
      9 C5           0.6940    -0.3060    -0.2790 ca         1 FPL      -0.021900
     10 C6          -1.7280    -0.3680    -0.3570 ca         1 FPL       0.116100
     11 C7          -2.7590    -0.4360    -1.3090 ca         1 FPL      -0.154500
     12 C8          -4.0330     0.0770    -1.0070 ca         1 FPL      -0.079500
     13 C9          -4.2760     0.6520     0.2530 ca         1 FPL      -0.137000
     14 C10         -3.2500     0.7100     1.2120 ca         1 FPL      -0.079500
     15 C11         -1.9760     0.1970     0.9090 ca         1 FPL      -0.154500
     16 HO           0.7360    -2.6750    -0.2510 ho         1 FPL       0.486000
     17 H1           3.8370    -1.1900     0.7510 ha         1 FPL       0.151000
     18 H3           2.1870     2.7470     0.1490 ha         1 FPL       0.139000
     19 H4           0.0160     1.7430    -0.5570 ha         1 FPL       0.133000
     20 H7          -2.5690    -0.8830    -2.2810 ha         1 FPL       0.127500
     21 H8          -4.8300     0.0280    -1.7460 ha         1 FPL       0.115500
     22 H9          -5.2620     1.0490     0.4880 ha         1 FPL       0.117000
     23 H10         -3.4420     1.1500     2.1890 ha         1 FPL       0.115500
     24 H11         -1.1890     0.2340     1.6580 ha         1 FPL       0.127500
@<TRIPOS>BOND
     1     1     3 1   
     2     1     4 ar  
     3     1     9 ar  
     4     2     6 1   
     5     3    16 1   
     6     4     6 ar  
     7     4    17 1   
     8     5     9 1   
     9     5    10 1   
    10     6     7 ar  
    11     7     8 ar  
    12     7    18 1   
    13     8     9 ar  
    14     8    19 1   
    15    10    11 ar  
    16    10    15 ar  
    17    11    12 ar  
    18    11    20 1   
    19    12    13 ar  
    20    12    21 1   
    21    13    14 ar  
    22    13    22 1   
    23    14    15 ar  
    24    14    23 1   
    25    15    24 1   
@<TRIPOS>SUBSTRUCTURE
     1 FPL         1 TEMP              0 ****  ****    0 ROOT
