@<TRIPOS>MOLECULE
FPL
   24    25     1     0     0
SMALL
bcc


@<TRIPOS>ATOM
      1 C            1.4470    -0.9620     0.1330 ca         1 FPL       0.171100
      2 F            4.1700     1.0720     1.3210 f          1 FPL      -0.136900
      3 O            1.0620    -2.2450     0.1990 oh         1 FPL      -0.484100
      4 C1           2.6310    -0.5920     0.7620 ca         1 FPL      -0.211000
      5 O1          -0.4450    -0.3880    -1.1830 os         1 FPL      -0.259200
      6 C2           3.0300     0.7280     0.7040 ca         1 FPL       0.174900
      7 C3           2.3120     1.7010     0.0360 ca         1 FPL      -0.203000
      8 C4           1.1360     1.3210    -0.5930 ca         1 FPL      -0.070000
      9 C5           0.7040     0.0080    -0.5440 ca         1 FPL      -0.021900
     10 C6          -1.6530    -0.1470    -0.5830 ca         1 FPL       0.116100
     11 C7          -2.7780    -0.4180    -1.3540 ca         1 FPL      -0.172500
     12 C8          -4.0390    -0.2150    -0.8180 ca         1 FPL      -0.097500
     13 C9          -4.1880     0.2590     0.4800 ca         1 FPL      -0.155000
     14 C10         -3.0570     0.5260     1.2380 ca         1 FPL      -0.097500
     15 C11         -1.7840     0.3250     0.7160 ca         1 FPL      -0.172500
     16 HO           0.3030    -2.4020    -0.3770 ho         1 FPL       0.447000
     17 H1           3.2230    -1.3290     1.2900 ha         1 FPL       0.169000
     18 H3           2.6560     2.7250     0.0050 ha         1 FPL       0.157000
     19 H4           0.5480     2.0560    -1.1280 ha         1 FPL       0.151000
     20 H7          -2.6610    -0.7860    -2.3660 ha         1 FPL       0.145500
     21 H8          -4.9120    -0.4260    -1.4220 ha         1 FPL       0.133500
     22 H9          -5.1740     0.4190     0.8950 ha         1 FPL       0.135000
     23 H10         -3.1570     0.8940     2.2510 ha         1 FPL       0.133500
     24 H11         -0.9170     0.5380     1.3270 ha         1 FPL       0.145500
@<TRIPOS>BOND
     1     1     3 1   
     2     1     4 ar  
     3     1     9 ar  
     4     2     6 1   
     5     3    16 1   
     6     4     6 ar  
     7     4    17 1   
     8     5     9 1   
     9     5    10 1   
    10     6     7 ar  
    11     7     8 ar  
    12     7    18 1   
    13     8     9 ar  
    14     8    19 1   
    15    10    11 ar  
    16    10    15 ar  
    17    11    12 ar  
    18    11    20 1   
    19    12    13 ar  
    20    12    21 1   
    21    13    14 ar  
    22    13    22 1   
    23    14    15 ar  
    24    14    23 1   
    25    15    24 1   
@<TRIPOS>SUBSTRUCTURE
     1 FPL         1 TEMP              0 ****  ****    0 ROOT
