@<TRIPOS>MOLECULE
FPM
   33    35     1     0     0
SMALL
No Charge or Current Charge


@<TRIPOS>ATOM
      1 C2          -1.2650     0.0400    -0.4590 c2         1 FPM      -0.057600
      2 C6           2.5070     0.4990    -0.6170 cy         1 FPM      -0.174700
      3 C5           1.0960     0.7890     0.0200 cy         1 FPM       0.185700
      4 C7           2.1230    -1.0090    -0.4490 c          1 FPM       0.572000
      5 N4           0.8090    -0.6030    -0.2660 nj         1 FPM      -0.261000
      6 C3          -0.5340    -1.0270    -0.0400 ce         1 FPM      -0.035600
      7 S1          -0.3350     1.5280    -0.9050 ss         1 FPM      -0.395600
      8 C31         -0.9300    -2.4280     0.4010 c          1 FPM       0.733200
      9 O7           2.6920    -2.0890    -0.5230 o          1 FPM      -0.475000
     10 C61          3.7540     0.9820     0.1290 c3         1 FPM       0.188300
     11 O62          3.7600     2.4080     0.2050 oh         1 FPM      -0.661000
     12 C62          5.0640     0.5200    -0.5370 c3         1 FPM      -0.127100
     13 C14         -2.8020    -0.0530    -0.4840 c5         1 FPM       0.250500
     14 C15         -3.3720     0.2940     0.9330 c5         1 FPM      -0.089400
     15 C16         -3.9760     1.7090     0.7290 c5         1 FPM      -0.119400
     16 C17         -4.4400     1.5920    -0.7360 c5         1 FPM       0.158600
     17 O18         -3.3020     0.9840    -1.3680 os         1 FPM      -0.471000
     18 O32         -0.0360    -3.2180     0.6710 o          1 FPM      -0.694000
     19 O31         -2.1120    -2.7220     0.5040 o          1 FPM      -0.694000
     20 H6           2.5800     0.7530    -1.6790 hc         1 FPM       0.096700
     21 H5           1.0540     1.0460     1.0840 h2         1 FPM       0.093700
     22 H61          3.7140     0.5590     1.1430 h1         1 FPM       0.041700
     23 HO62         4.5720     2.6650     0.6940 ho         1 FPM       0.432000
     24 H162         5.9340     0.8630     0.0360 hc         1 FPM       0.042033
     25 H262         5.1080    -0.5740    -0.5880 hc         1 FPM       0.042033
     26 H362         5.1470     0.9140    -1.5580 hc         1 FPM       0.042033
     27 H14         -3.1680    -1.0220    -0.8490 h1         1 FPM       0.106700
     28 H115        -4.1460    -0.4280     1.2180 hc         1 FPM       0.063200
     29 H215        -2.6120     0.2740     1.7220 hc         1 FPM       0.063200
     30 H116        -4.7980     1.9270     1.4200 hc         1 FPM       0.045700
     31 H216        -3.2190     2.4950     0.8440 hc         1 FPM       0.045700
     32 H117        -5.3120     0.9320    -0.8420 h1         1 FPM       0.027200
     33 H217        -4.6580     2.5630    -1.2000 h1         1 FPM       0.027200
@<TRIPOS>BOND
     1     1     6 2   
     2     1     7 1   
     3     1    13 1   
     4     2     3 1   
     5     2     4 1   
     6     2    10 1   
     7     2    20 1   
     8     3     5 1   
     9     3     7 1   
    10     3    21 1   
    11     4     5 1   
    12     4     9 2   
    13     5     6 1   
    14     6     8 1   
    15     8    18 1   
    16     8    19 1   
    17    10    11 1   
    18    10    12 1   
    19    10    22 1   
    20    11    23 1   
    21    12    24 1   
    22    12    25 1   
    23    12    26 1   
    24    13    14 1   
    25    13    17 1   
    26    13    27 1   
    27    14    15 1   
    28    14    28 1   
    29    14    29 1   
    30    15    16 1   
    31    15    30 1   
    32    15    31 1   
    33    16    17 1   
    34    16    32 1   
    35    16    33 1   
@<TRIPOS>SUBSTRUCTURE
     1 FPM         1 TEMP              0 ****  ****    0 ROOT
