@<TRIPOS>MOLECULE
FPM
   33    35     1     0     0
SMALL
bcc


@<TRIPOS>ATOM
      1 C2          -1.2680    -0.1380    -0.2800 c2         1 FPM      -0.057600
      2 C6           2.3440     0.5890    -0.5940 cy         1 FPM      -0.174700
      3 C5           1.0380     0.8500     0.1810 cy         1 FPM       0.137800
      4 C7           1.9640    -0.8870    -0.4510 c          1 FPM       0.714500
      5 N4           0.8760    -0.5860     0.3400 nj         1 FPM      -0.328000
      6 C3          -0.4570    -1.0610     0.2580 ce         1 FPM      -0.035600
      7 S1          -0.4580     1.3730    -0.7350 ss         1 FPM      -0.347700
      8 C31         -0.8070    -2.4430     0.7410 c          1 FPM       0.943800
      9 O7           2.3880    -1.9270    -0.8780 o          1 FPM      -0.550500
     10 C61          3.6320     1.0590     0.0540 c3         1 FPM       0.165100
     11 O62          3.5790     2.4700     0.0230 oh         1 FPM      -0.598800
     12 C62          4.8520     0.5120    -0.6700 c3         1 FPM      -0.127100
     13 C14         -2.7450    -0.2040    -0.5450 c5         1 FPM       0.227300
     14 C15         -3.5810    -0.0010     0.7240 c5         1 FPM      -0.089400
     15 C16         -3.7980     1.5060     0.7360 c5         1 FPM      -0.119400
     16 C17         -3.9080     1.8190    -0.7490 c5         1 FPM       0.135400
     17 O18         -3.0950     0.8600    -1.4190 os         1 FPM      -0.424600
     18 O32          0.1180    -3.0780     1.2760 o          1 FPM      -0.799300
     19 O31         -1.9840    -2.8080     0.5600 o          1 FPM      -0.799300
     20 H6           2.3010     0.9070    -1.6390 hc         1 FPM       0.096700
     21 H5           1.1260     1.4120     1.1120 h2         1 FPM       0.093700
     22 H61          3.6510     0.7020     1.0940 h1         1 FPM       0.041700
     23 HO62         4.3560     2.8120     0.4790 ho         1 FPM       0.393000
     24 H162         5.7690     0.8860    -0.2100 hc         1 FPM       0.042033
     25 H262         4.8830    -0.5760    -0.6220 hc         1 FPM       0.042033
     26 H362         4.8520     0.8070    -1.7200 hc         1 FPM       0.042033
     27 H14         -2.9800    -1.1560    -1.0230 h1         1 FPM       0.106700
     28 H115        -4.5320    -0.5290     0.6260 hc         1 FPM       0.063200
     29 H215        -3.0810    -0.3810     1.6120 hc         1 FPM       0.063200
     30 H116        -4.6920     1.8050     1.2830 hc         1 FPM       0.045700
     31 H216        -2.9450     2.0210     1.1820 hc         1 FPM       0.045700
     32 H117        -4.9450     1.7280    -1.0920 h1         1 FPM       0.027200
     33 H217        -3.5560     2.8210    -1.0020 h1         1 FPM       0.027200
@<TRIPOS>BOND
     1     1     6 2   
     2     1     7 1   
     3     1    13 1   
     4     2     3 1   
     5     2     4 1   
     6     2    10 1   
     7     2    20 1   
     8     3     5 1   
     9     3     7 1   
    10     3    21 1   
    11     4     5 1   
    12     4     9 2   
    13     5     6 1   
    14     6     8 1   
    15     8    18 1   
    16     8    19 1   
    17    10    11 1   
    18    10    12 1   
    19    10    22 1   
    20    11    23 1   
    21    12    24 1   
    22    12    25 1   
    23    12    26 1   
    24    13    14 1   
    25    13    17 1   
    26    13    27 1   
    27    14    15 1   
    28    14    28 1   
    29    14    29 1   
    30    15    16 1   
    31    15    30 1   
    32    15    31 1   
    33    16    17 1   
    34    16    32 1   
    35    16    33 1   
@<TRIPOS>SUBSTRUCTURE
     1 FPM         1 TEMP              0 ****  ****    0 ROOT
