@<TRIPOS>MOLECULE
FPN
   13    13     1     0     0
SMALL
abcg2


@<TRIPOS>ATOM
      1 C1           1.4110    -0.0590     0.1290 ca         1 FPN       0.125100
      2 C2           0.7470     1.1650     0.1410 ca         1 FPN      -0.151500
      3 C3          -0.6380     1.2130     0.0560 ca         1 FPN      -0.110500
      4 C4          -1.3460     0.0320    -0.0390 ca         1 FPN       0.131000
      5 C5          -0.7090    -1.1940    -0.0520 ca         1 FPN      -0.110500
      6 C6           0.6740    -1.2370     0.0330 ca         1 FPN      -0.151500
      7 O1           2.7540    -0.1610     0.2070 oh         1 FPN      -0.531100
      8 F1          -2.6900     0.0760    -0.1230 f          1 FPN      -0.181000
      9 H2           1.3050     2.0910     0.2170 ha         1 FPN       0.125000
     10 H3          -1.1530     2.1640     0.0650 ha         1 FPN       0.132000
     11 H5          -1.2800    -2.1100    -0.1280 ha         1 FPN       0.132000
     12 H6           1.1850    -2.1920     0.0250 ha         1 FPN       0.125000
     13 HO1          3.1540     0.7120     0.2890 ho         1 FPN       0.466000
@<TRIPOS>BOND
     1     1     2 ar  
     2     1     6 ar  
     3     1     7 1   
     4     2     3 ar  
     5     2     9 1   
     6     3     4 ar  
     7     3    10 1   
     8     4     5 ar  
     9     4     8 1   
    10     5     6 ar  
    11     5    11 1   
    12     6    12 1   
    13     7    13 1   
@<TRIPOS>SUBSTRUCTURE
     1 FPN         1 TEMP              0 ****  ****    0 ROOT
