@<TRIPOS>MOLECULE
FPN
   13    13     1     0     0
SMALL
No Charge or Current Charge


@<TRIPOS>ATOM
      1 C1           1.4250    -0.0780     0.1320 ca         1 FPN       0.125100
      2 C2           0.7700     1.1670     0.1450 ca         1 FPN      -0.151500
      3 C3          -0.6350     1.2220     0.0570 ca         1 FPN      -0.110500
      4 C4          -1.3760     0.0320    -0.0420 ca         1 FPN       0.131000
      5 C5          -0.7240    -1.2120    -0.0550 ca         1 FPN      -0.110500
      6 C6           0.6800    -1.2650     0.0330 ca         1 FPN      -0.151500
      7 O1           2.7840    -0.1410     0.2170 oh         1 FPN      -0.531100
      8 F1          -2.7230     0.0850    -0.1260 f          1 FPN      -0.181000
      9 H2           1.3390     2.0910     0.2210 ha         1 FPN       0.125000
     10 H3          -1.1480     2.1800     0.0660 ha         1 FPN       0.132000
     11 H5          -1.3040    -2.1280    -0.1320 ha         1 FPN       0.132000
     12 H6           1.1890    -2.2260     0.0240 ha         1 FPN       0.125000
     13 HO1          3.1370     0.7720     0.2790 ho         1 FPN       0.466000
@<TRIPOS>BOND
     1     1     2 ar  
     2     1     6 ar  
     3     1     7 1   
     4     2     3 ar  
     5     2     9 1   
     6     3     4 ar  
     7     3    10 1   
     8     4     5 ar  
     9     4     8 1   
    10     5     6 ar  
    11     5    11 1   
    12     6    12 1   
    13     7    13 1   
@<TRIPOS>SUBSTRUCTURE
     1 FPN         1 TEMP              0 ****  ****    0 ROOT
