@<TRIPOS>MOLECULE
FPO
    5     4     1     0     0
SMALL
bcc


@<TRIPOS>ATOM
      1 P            0.1840    -0.0320    -0.0250 p5         1 FPO       1.326900
      2 O1           0.4660    -1.5240     0.0310 o          1 FPO      -0.951500
      3 O2           0.5650     0.7520     1.2190 o          1 FPO      -0.951500
      4 O3           0.5050     0.6450    -1.3470 o          1 FPO      -0.951500
      5 F           -1.4930     0.0210     0.0120 f          1 FPO      -0.474400
@<TRIPOS>BOND
     1     1     2 1   
     2     1     3 1   
     3     1     4 1   
     4     1     5 1   
@<TRIPOS>SUBSTRUCTURE
     1 FPO         1 TEMP              0 ****  ****    0 ROOT
