@<TRIPOS>MOLECULE
FPO
    5     4     1     0     0
SMALL
No Charge or Current Charge


@<TRIPOS>ATOM
      1 P            0.0960    -0.0290    -0.0230 p5         1 FPO       1.326900
      2 O1           0.5050    -1.4610     0.0270 o          1 FPO      -0.951500
      3 O2           0.6000     0.7160     1.1640 o          1 FPO      -0.951500
      4 O3           0.5420     0.6130    -1.2910 o          1 FPO      -0.951500
      5 F           -1.5160     0.0220     0.0130 f          1 FPO      -0.474400
@<TRIPOS>BOND
     1     1     2 1   
     2     1     3 1   
     3     1     4 1   
     4     1     5 1   
@<TRIPOS>SUBSTRUCTURE
     1 FPO         1 TEMP              0 ****  ****    0 ROOT
