@<TRIPOS>MOLECULE
FPR
   33    33     1     0     0
SMALL
No Charge or Current Charge


@<TRIPOS>ATOM
      1 N           35.4540    94.2540    19.3310 n8         1 FPR      -0.899800
      2 C           34.3900    92.4790    17.7890 c          1 FPR       0.572100
      3 O           33.2160    92.4310    17.4330 o          1 FPR      -0.563100
      4 C5          37.9100    88.4800    15.4420 ca         1 FPR      -0.125500
      5 C6          38.2680    87.7370    14.3030 ca         1 FPR      -0.131500
      6 C7          37.3960    86.7560    13.8010 ca         1 FPR      -0.140000
      7 C8          36.1670    86.5180    14.4380 ca         1 FPR      -0.131500
      8 C9          35.8090    87.2600    15.5770 ca         1 FPR      -0.125500
      9 C11         35.1470    91.1970    18.1800 c3         1 FPR      -0.181400
     10 OD2         37.5240    95.9890    17.3990 o          1 FPR      -0.842800
     11 C21         35.5510    90.3540    16.9450 c3         1 FPR      -0.064400
     12 OD1         36.2670    95.7950    15.6640 o          1 FPR      -0.842800
     13 C31         36.2910    89.0530    17.3170 c3         1 FPR      -0.038100
     14 C41         36.6800    88.2440    16.0860 ca         1 FPR      -0.064300
     15 CA          35.1570    93.8460    17.9220 c3         1 FPR       0.086500
     16 CB          36.4510    93.8910    17.0680 c3         1 FPR      -0.213400
     17 CG          36.7870    95.3350    16.6730 c          1 FPR       0.934600
     18 H           35.9530    95.1500    19.3260 hn         1 FPR       0.348300
     19 H2          34.5770    94.4520    19.8270 hn         1 FPR       0.348300
     20 H7          37.6730    86.1810    12.9190 ha         1 FPR       0.121000
     21 H8          35.4900    85.7590    14.0500 ha         1 FPR       0.122500
     22 H9          34.8540    87.0730    16.0640 ha         1 FPR       0.130000
     23 H11         36.0590    91.4640    18.7270 hc         1 FPR       0.068700
     24 H11A        34.4960    90.5900    18.8190 hc         1 FPR       0.068700
     25 H21         34.6510    90.1010    16.3690 hc         1 FPR       0.048200
     26 H21A        36.1930    90.9510    16.2860 hc         1 FPR       0.048200
     27 H31         37.1860    89.3010    17.9010 hc         1 FPR       0.044700
     28 H31A        35.6530    88.4510    17.9770 hc         1 FPR       0.044700
     29 HA          34.4700    94.5990    17.5100 h1         1 FPR       0.050700
     30 HB2         37.2570    93.4480    17.6670 hc         1 FPR       0.035700
     31 HB3         36.2220    93.3250    16.1570 hc         1 FPR       0.035700
     32 H5          38.5890    89.2400    15.8230 ha         1 FPR       0.130000
     33 H6          39.2200    87.9230    13.8090 ha         1 FPR       0.122500
@<TRIPOS>BOND
     1     1    15 1   
     2     1    18 1   
     3     1    19 1   
     4     2     3 2   
     5     2     9 1   
     6     2    15 1   
     7     4     5 ar  
     8     4    14 ar  
     9     4    32 1   
    10     5     6 ar  
    11     5    33 1   
    12     6     7 ar  
    13     6    20 1   
    14     7     8 ar  
    15     7    21 1   
    16     8    14 ar  
    17     8    22 1   
    18     9    11 1   
    19     9    23 1   
    20     9    24 1   
    21    10    17 1   
    22    11    13 1   
    23    11    25 1   
    24    11    26 1   
    25    12    17 1   
    26    13    14 1   
    27    13    27 1   
    28    13    28 1   
    29    15    16 1   
    30    15    29 1   
    31    16    17 1   
    32    16    30 1   
    33    16    31 1   
@<TRIPOS>SUBSTRUCTURE
     1 FPR         1 TEMP              0 ****  ****    0 ROOT
