@<TRIPOS>MOLECULE
FPR
   33    33     1     0     0
SMALL
bcc


@<TRIPOS>ATOM
      1 N           35.2780    93.5630    19.2730 n8         1 FPR      -0.899800
      2 C           35.1250    92.7300    16.9650 c          1 FPR       0.572100
      3 O           34.5750    92.7700    15.8850 o          1 FPR      -0.563100
      4 C5          37.7640    87.9640    15.0270 ca         1 FPR      -0.125500
      5 C6          37.7770    86.9430    14.0850 ca         1 FPR      -0.131500
      6 C7          36.7730    85.9830    14.0830 ca         1 FPR      -0.140000
      7 C8          35.7600    86.0530    15.0290 ca         1 FPR      -0.131500
      8 C9          35.7520    87.0760    15.9690 ca         1 FPR      -0.125500
      9 C11         35.8880    91.5160    17.4260 c3         1 FPR      -0.181400
     10 OD2         35.4180    96.5010    19.0220 o          1 FPR      -0.842800
     11 C21         35.9640    90.3920    16.4070 c3         1 FPR      -0.064400
     12 OD1         37.0810    97.0730    17.6530 o          1 FPR      -0.842800
     13 C31         36.7110    89.1790    16.9660 c3         1 FPR      -0.038100
     14 C41         36.7530    88.0450    15.9820 ca         1 FPR      -0.064300
     15 CA          35.0980    93.9420    17.8830 c3         1 FPR       0.086500
     16 CB          36.2270    94.8800    17.4430 c3         1 FPR      -0.213400
     17 CG          36.2360    96.2790    18.1050 c          1 FPR       0.934600
     18 H           35.3300    94.4230    19.8060 hn         1 FPR       0.348300
     19 H2          34.4530    93.0790    19.6060 hn         1 FPR       0.348300
     20 H7          36.7830    85.1860    13.3510 ha         1 FPR       0.121000
     21 H8          34.9740    85.3080    15.0390 ha         1 FPR       0.122500
     22 H9          34.9580    87.1210    16.7050 ha         1 FPR       0.130000
     23 H11         36.8880    91.8390    17.7350 hc         1 FPR       0.068700
     24 H11A        35.4240    91.1570    18.3510 hc         1 FPR       0.068700
     25 H21         34.9580    90.0860    16.1110 hc         1 FPR       0.048200
     26 H21A        36.4640    90.7340    15.4970 hc         1 FPR       0.048200
     27 H31         37.7280    89.4750    17.2390 hc         1 FPR       0.044700
     28 H31A        36.2220    88.8510    17.8880 hc         1 FPR       0.044700
     29 HA          34.1440    94.4540    17.6900 h1         1 FPR       0.050700
     30 HB2         37.1910    94.3990    17.6420 hc         1 FPR       0.035700
     31 HB3         36.1810    95.0240    16.3600 hc         1 FPR       0.035700
     32 H5          38.5540    88.7060    15.0210 ha         1 FPR       0.130000
     33 H6          38.5740    86.8960    13.3540 ha         1 FPR       0.122500
@<TRIPOS>BOND
     1     1    15 1   
     2     1    18 1   
     3     1    19 1   
     4     2     3 2   
     5     2     9 1   
     6     2    15 1   
     7     4     5 ar  
     8     4    14 ar  
     9     4    32 1   
    10     5     6 ar  
    11     5    33 1   
    12     6     7 ar  
    13     6    20 1   
    14     7     8 ar  
    15     7    21 1   
    16     8    14 ar  
    17     8    22 1   
    18     9    11 1   
    19     9    23 1   
    20     9    24 1   
    21    10    17 1   
    22    11    13 1   
    23    11    25 1   
    24    11    26 1   
    25    12    17 1   
    26    13    14 1   
    27    13    27 1   
    28    13    28 1   
    29    15    16 1   
    30    15    29 1   
    31    16    17 1   
    32    16    30 1   
    33    16    31 1   
@<TRIPOS>SUBSTRUCTURE
     1 FPR         1 TEMP              0 ****  ****    0 ROOT
