@<TRIPOS>MOLECULE
FPT
   40    41     1     0     0
SMALL
No Charge or Current Charge


@<TRIPOS>ATOM
      1 C1          -0.4260    -0.2360    -4.1600 ca         1 FPT       0.521900
      2 N2           0.8460    -0.6080    -4.3850 nb         1 FPT      -0.668000
      3 C3           1.2600    -0.6650    -5.6730 ca         1 FPT       0.419900
      4 C4           0.4190    -0.3810    -6.7630 ca         1 FPT      -0.109000
      5 C5          -0.9200    -0.0290    -6.5160 ca         1 FPT      -0.008000
      6 C6          -1.3490     0.0310    -5.1800 ca         1 FPT      -0.218000
      7 C7           0.9280    -0.4660    -8.0970 cg         1 FPT       0.331000
      8 N7           1.3330    -0.5330    -9.1890 n1         1 FPT      -0.447000
      9 N8          -0.8120    -0.2650    -2.8210 ns         1 FPT      -0.466400
     10 C9          -0.2550     0.2810    -1.7060 cs         1 FPT       0.466400
     11 S9           1.0560     1.3180    -1.6990 s          1 FPT      -0.555400
     12 N10         -0.9500    -0.0550    -0.5810 ns         1 FPT      -0.448900
     13 C11         -0.6400     0.3940     0.7770 c3         1 FPT       0.110000
     14 C12         -1.5690    -0.2570     1.8160 c3         1 FPT      -0.142700
     15 C13         -1.2440     0.1990     3.2320 ca         1 FPT       0.340300
     16 N14         -2.0300     1.1870     3.7250 nb         1 FPT      -0.676000
     17 C15         -1.7800     1.6340     4.9760 ca         1 FPT       0.366900
     18 C16         -0.7480     1.1240     5.7780 ca         1 FPT      -0.238000
     19 C17          0.0740     0.0990     5.2690 ca         1 FPT       0.153100
     20 C18         -0.1810    -0.3720     3.9680 ca         1 FPT       0.085000
     21 O17          1.1120    -0.4530     5.9970 os         1 FPT      -0.325100
     22 CA           1.4280    -0.0190     7.3300 c3         1 FPT       0.163600
     23 CB           2.6270    -0.8490     7.8140 c3         1 FPT      -0.096100
     24 F18          0.5860    -1.3540     3.4320 f          1 FPT      -0.160000
     25 H3           2.2990    -0.9530    -5.8300 h4         1 FPT       0.039100
     26 H5          -1.6090     0.1860    -7.3320 ha         1 FPT       0.132000
     27 H6          -2.3760     0.2890    -4.9380 ha         1 FPT       0.127000
     28 HN8         -1.6600    -0.7910    -2.6730 hn         1 FPT       0.312500
     29 H10         -1.7430    -0.6760    -0.6930 hn         1 FPT       0.303500
     30 H111        -0.7450     1.4870     0.8220 h1         1 FPT       0.079700
     31 H112         0.4050     0.1410     1.0050 h1         1 FPT       0.079700
     32 H121        -1.4810    -1.3480     1.7470 hc         1 FPT       0.065700
     33 H122        -2.6100    -0.0160     1.5670 hc         1 FPT       0.065700
     34 H15         -2.4290     2.4280     5.3460 h4         1 FPT       0.025100
     35 H16         -0.6100     1.5350     6.7730 ha         1 FPT       0.132000
     36 HA1          0.5760    -0.1790     8.0040 h1         1 FPT       0.039700
     37 HA2          1.6920     1.0460     7.3400 h1         1 FPT       0.039700
     38 HB1          2.9070    -0.5530     8.8320 hc         1 FPT       0.052367
     39 HB2          2.3790    -1.9170     7.8220 hc         1 FPT       0.052367
     40 HB3          3.4930    -0.6940     7.1600 hc         1 FPT       0.052367
@<TRIPOS>BOND
     1     1     2 ar  
     2     1     6 ar  
     3     1     9 1   
     4     2     3 ar  
     5     3     4 ar  
     6     3    25 1   
     7     4     5 ar  
     8     4     7 1   
     9     5     6 ar  
    10     5    26 1   
    11     6    27 1   
    12     7     8 3   
    13     9    10 1   
    14     9    28 1   
    15    10    11 2   
    16    10    12 1   
    17    12    13 1   
    18    12    29 1   
    19    13    14 1   
    20    13    30 1   
    21    13    31 1   
    22    14    15 1   
    23    14    32 1   
    24    14    33 1   
    25    15    16 ar  
    26    15    20 ar  
    27    16    17 ar  
    28    17    18 ar  
    29    17    34 1   
    30    18    19 ar  
    31    18    35 1   
    32    19    20 ar  
    33    19    21 1   
    34    20    24 1   
    35    21    22 1   
    36    22    23 1   
    37    22    36 1   
    38    22    37 1   
    39    23    38 1   
    40    23    39 1   
    41    23    40 1   
@<TRIPOS>SUBSTRUCTURE
     1 FPT         1 TEMP              0 ****  ****    0 ROOT
