@<TRIPOS>MOLECULE
FPT
   40    41     1     0     0
SMALL
bcc


@<TRIPOS>ATOM
      1 C1          -0.4830    -0.2260    -4.1060 ca         1 FPT       0.587200
      2 N2           0.8180    -0.1190    -4.3300 nb         1 FPT      -0.668000
      3 C3           1.2480    -0.1410    -5.5770 ca         1 FPT       0.485200
      4 C4           0.4020    -0.2940    -6.6720 ca         1 FPT      -0.174300
      5 C5          -0.9680    -0.4330    -6.4330 ca         1 FPT      -0.026000
      6 C6          -1.4190    -0.3950    -5.1360 ca         1 FPT      -0.301300
      7 C7           0.9300    -0.3190    -7.9910 cg         1 FPT       0.241800
      8 N7           1.3630    -0.3400    -9.0600 n1         1 FPT      -0.357800
      9 N8          -0.9450    -0.2360    -2.8070 ns         1 FPT      -0.533400
     10 C9          -0.4010     0.3520    -1.6910 cs         1 FPT       0.600400
     11 S9           0.7170     1.5860    -1.7230 s          1 FPT      -0.555400
     12 N10         -0.9130    -0.1210    -0.5550 ns         1 FPT      -0.515900
     13 C11         -0.5720     0.3790     0.7580 c3         1 FPT       0.110000
     14 C12         -1.4480    -0.2940     1.8110 c3         1 FPT      -0.142700
     15 C13         -1.1170     0.2320     3.1770 ca         1 FPT       0.405600
     16 N14         -1.7120     1.3640     3.5610 nb         1 FPT      -0.676000
     17 C15         -1.4130     1.8590     4.7500 ca         1 FPT       0.432200
     18 C16         -0.5190     1.2790     5.6380 ca         1 FPT      -0.321300
     19 C17          0.1140     0.1010     5.2590 ca         1 FPT       0.153100
     20 C18         -0.2080    -0.4030     3.9970 ca         1 FPT      -0.015400
     21 O17          0.9940    -0.5880     5.9780 os         1 FPT      -0.301900
     22 CA           1.3630    -0.0870     7.2650 c3         1 FPT       0.140400
     23 CB           2.3680    -1.0380     7.8650 c3         1 FPT      -0.096100
     24 F18          0.3940    -1.5310     3.5930 f          1 FPT      -0.124900
     25 H3           2.3180    -0.0500    -5.7240 h4         1 FPT       0.039100
     26 H5          -1.6630    -0.5570    -7.2520 ha         1 FPT       0.150000
     27 H6          -2.4740    -0.4830    -4.9180 ha         1 FPT       0.145000
     28 HN8         -1.8540    -0.6600    -2.6860 hn         1 FPT       0.312500
     29 H10         -1.5070    -0.9380    -0.5970 hn         1 FPT       0.303500
     30 H111        -0.7170     1.4600     0.7860 h1         1 FPT       0.079700
     31 H112         0.4860     0.1930     0.9620 h1         1 FPT       0.079700
     32 H121        -1.3210    -1.3770     1.7660 hc         1 FPT       0.065700
     33 H122        -2.4980    -0.0780     1.6070 hc         1 FPT       0.065700
     34 H15         -1.9130     2.7790     5.0310 h4         1 FPT       0.025100
     35 H16         -0.3350     1.7480     6.5940 ha         1 FPT       0.150000
     36 HA1          0.4760    -0.0120     7.9000 h1         1 FPT       0.039700
     37 HA2          1.7900     0.9140     7.1610 h1         1 FPT       0.039700
     38 HB1          2.6700    -0.6630     8.8420 hc         1 FPT       0.052367
     39 HB2          1.9430    -2.0330     8.0050 hc         1 FPT       0.052367
     40 HB3          3.2610    -1.1210     7.2470 hc         1 FPT       0.052367
@<TRIPOS>BOND
     1     1     2 ar  
     2     1     6 ar  
     3     1     9 1   
     4     2     3 ar  
     5     3     4 ar  
     6     3    25 1   
     7     4     5 ar  
     8     4     7 1   
     9     5     6 ar  
    10     5    26 1   
    11     6    27 1   
    12     7     8 3   
    13     9    10 1   
    14     9    28 1   
    15    10    11 2   
    16    10    12 1   
    17    12    13 1   
    18    12    29 1   
    19    13    14 1   
    20    13    30 1   
    21    13    31 1   
    22    14    15 1   
    23    14    32 1   
    24    14    33 1   
    25    15    16 ar  
    26    15    20 ar  
    27    16    17 ar  
    28    17    18 ar  
    29    17    34 1   
    30    18    19 ar  
    31    18    35 1   
    32    19    20 ar  
    33    19    21 1   
    34    20    24 1   
    35    21    22 1   
    36    22    23 1   
    37    22    36 1   
    38    22    37 1   
    39    23    38 1   
    40    23    39 1   
    41    23    40 1   
@<TRIPOS>SUBSTRUCTURE
     1 FPT         1 TEMP              0 ****  ****    0 ROOT
