@<TRIPOS>MOLECULE
FPU
   58    62     1     0     0
SMALL
No Charge or Current Charge


@<TRIPOS>ATOM
      1 C1           6.1540     3.4320    -1.1460 c3         1 FPU       0.143900
      2 N1           5.7350    -2.8250     0.5500 nb         1 FPU      -0.683000
      3 O1           7.0590     2.4750    -0.5660 os         1 FPU      -0.319100
      4 C2           6.6930     1.1650    -0.3030 ca         1 FPU       0.118100
      5 N2          -0.8520    -0.1130    -1.3580 nb         1 FPU      -0.668000
      6 C3           5.3980     0.6810    -0.5900 ca         1 FPU      -0.156000
      7 N3          -2.5430    -0.3150     0.2330 ns         1 FPU      -0.345900
      8 C4           5.0620    -0.6610    -0.3070 ca         1 FPU      -0.092000
      9 N4          -4.7920     0.0260     0.2190 ns         1 FPU      -0.505900
     10 O4          -3.4740     1.2420    -1.1870 o          1 FPU      -0.567100
     11 C5           3.7740    -1.1650    -0.5790 ca         1 FPU       0.182100
     12 C6           3.4970    -2.5070    -0.2900 ca         1 FPU      -0.262000
     13 C7           4.5010    -3.2980     0.2750 ca         1 FPU       0.377900
     14 C8           6.0190    -1.5340     0.2660 ca         1 FPU       0.305000
     15 C9           7.3030    -1.0440     0.5480 ca         1 FPU      -0.185000
     16 C10          7.6500     0.2960     0.2690 ca         1 FPU       0.148100
     17 C11          9.9560    -0.0110     1.1230 c3         1 FPU       0.142900
     18 C12          1.4920    -0.3620    -0.7430 ca         1 FPU      -0.000900
     19 C13          1.1410    -0.5570     0.6070 ca         1 FPU      -0.054000
     20 C14         -0.2230    -0.5290     0.9430 ca         1 FPU      -0.211000
     21 C15         -1.1740    -0.2830    -0.0600 ca         1 FPU       0.504900
     22 C16          0.4640    -0.1380    -1.6840 ca         1 FPU       0.380900
     23 C17         -3.5830     0.3840    -0.3250 c          1 FPU       0.663100
     24 C18         -6.0540     0.5980    -0.1660 cx         1 FPU       0.064700
     25 C19         -6.5620     1.7770     0.6260 cx         1 FPU      -0.097400
     26 C20         -7.2230     0.4250     0.7790 cx         1 FPU      -0.095400
     27 C21         -8.6230     0.1550     0.2820 ca         1 FPU      -0.050300
     28 C22         -9.4830    -0.6650     1.0400 ca         1 FPU      -0.106500
     29 C23        -10.7910    -0.9330     0.5990 ca         1 FPU      -0.107500
     30 C24        -11.2530    -0.3820    -0.6070 ca         1 FPU      -0.109000
     31 C25        -10.4050     0.4370    -1.3710 ca         1 FPU      -0.107500
     32 C26         -9.0980     0.7050    -0.9300 ca         1 FPU      -0.106500
     33 H18         -6.2460     0.5770    -1.2400 h1         1 FPU       0.086700
     34 H20         -7.0120    -0.0970     1.7090 hc         1 FPU       0.083700
     35 H1           5.8160     3.1000    -2.1360 h1         1 FPU       0.042700
     36 H1A          5.2760     3.5780    -0.5030 h1         1 FPU       0.042700
     37 H1B          6.6530     4.4020    -1.2650 h1         1 FPU       0.042700
     38 H3           4.6490     1.3350    -1.0280 ha         1 FPU       0.136000
     39 H6           2.5240    -2.9390    -0.5020 ha         1 FPU       0.132000
     40 H7           4.3170    -4.3450     0.5130 h4         1 FPU       0.016100
     41 H9           8.0220    -1.7280     0.9870 ha         1 FPU       0.139000
     42 H11         10.1960    -0.8660     0.4780 h1         1 FPU       0.044700
     43 H11A        10.8690     0.5840     1.2510 h1         1 FPU       0.044700
     44 H11B         9.6550    -0.3860     2.1100 h1         1 FPU       0.044700
     45 H13          1.8970    -0.7230     1.3710 ha         1 FPU       0.135000
     46 H14         -0.5420    -0.6870     1.9700 ha         1 FPU       0.124000
     47 H16          0.7040     0.0170    -2.7360 h4         1 FPU       0.040100
     48 HN3         -2.7890    -0.9430     0.9840 hn         1 FPU       0.149000
     49 HN4         -4.7730    -0.7000     0.9240 hn         1 FPU       0.313500
     50 H19         -5.9530     2.1380     1.4510 hc         1 FPU       0.086200
     51 H19A        -7.0960     2.5550     0.0870 hc         1 FPU       0.086200
     52 H22         -9.1400    -1.0990     1.9770 ha         1 FPU       0.111000
     53 H23        -11.4460    -1.5670     1.1930 ha         1 FPU       0.113500
     54 H24        -12.2650    -0.5880    -0.9490 ha         1 FPU       0.114000
     55 H25        -10.7620     0.8650    -2.3050 ha         1 FPU       0.113500
     56 H26         -8.4590     1.3420    -1.5370 ha         1 FPU       0.111000
     57 O2           8.9150     0.7940     0.5420 os         1 FPU      -0.317100
     58 O3           2.8110    -0.3620    -1.1520 os         1 FPU      -0.236200
@<TRIPOS>BOND
     1     1     3 1   
     2     1    35 1   
     3     1    36 1   
     4     1    37 1   
     5     2    13 ar  
     6     2    14 ar  
     7     3     4 1   
     8     4     6 ar  
     9     4    16 ar  
    10     5    21 ar  
    11     5    22 ar  
    12     6     8 ar  
    13     6    38 1   
    14     7    21 1   
    15     7    23 1   
    16     7    48 1   
    17     8    11 ar  
    18     8    14 ar  
    19     9    23 1   
    20     9    24 1   
    21     9    49 1   
    22    10    23 2   
    23    11    12 ar  
    24    11    58 1   
    25    12    13 ar  
    26    12    39 1   
    27    13    40 1   
    28    14    15 ar  
    29    15    16 ar  
    30    15    41 1   
    31    16    57 1   
    32    17    42 1   
    33    17    43 1   
    34    17    44 1   
    35    17    57 1   
    36    18    19 ar  
    37    18    22 ar  
    38    18    58 1   
    39    19    20 ar  
    40    19    45 1   
    41    20    21 ar  
    42    20    46 1   
    43    22    47 1   
    44    24    25 1   
    45    24    26 1   
    46    24    33 1   
    47    25    26 1   
    48    25    50 1   
    49    25    51 1   
    50    26    27 1   
    51    26    34 1   
    52    27    28 ar  
    53    27    32 ar  
    54    28    29 ar  
    55    28    52 1   
    56    29    30 ar  
    57    29    53 1   
    58    30    31 ar  
    59    30    54 1   
    60    31    32 ar  
    61    31    55 1   
    62    32    56 1   
@<TRIPOS>SUBSTRUCTURE
     1 FPU         1 TEMP              0 ****  ****    0 ROOT
