@<TRIPOS>MOLECULE
FPU
   58    62     1     0     0
SMALL
abcg2


@<TRIPOS>ATOM
      1 C1           6.5050     3.5170    -0.4070 c3         1 FPU       0.143900
      2 N1           5.5200    -2.7660     0.1160 nb         1 FPU      -0.683000
      3 O1           7.3610     2.3910    -0.3720 os         1 FPU      -0.319100
      4 C2           6.8030     1.1790    -0.2500 ca         1 FPU       0.118100
      5 N2          -0.7580    -0.0530    -0.6920 nb         1 FPU      -0.668000
      6 C3           5.4630     0.9280    -0.1550 ca         1 FPU      -0.156000
      7 N3          -2.6270    -0.3470     0.6800 ns         1 FPU      -0.345900
      8 C4           4.9870    -0.4000    -0.0280 ca         1 FPU      -0.092000
      9 N4          -4.8640    -0.2430     0.2590 ns         1 FPU      -0.505900
     10 O4          -3.4210     0.8180    -1.1330 o          1 FPU      -0.567100
     11 C5           3.6140    -0.7210     0.0750 ca         1 FPU       0.182100
     12 C6           3.2320    -2.0350     0.1930 ca         1 FPU      -0.262000
     13 C7           4.2380    -3.0130     0.2060 ca         1 FPU       0.377900
     14 C8           5.9020    -1.4740    -0.0010 ca         1 FPU       0.305000
     15 C9           7.2860    -1.1940    -0.1000 ca         1 FPU      -0.185000
     16 C10          7.7380     0.0920    -0.2230 ca         1 FPU       0.148100
     17 C11         10.0070    -0.5600    -0.3060 c3         1 FPU       0.142900
     18 C12          1.4200     0.1110     0.2480 ca         1 FPU      -0.000900
     19 C13          0.9050    -0.0410     1.5280 ca         1 FPU      -0.054000
     20 C14         -0.4580    -0.1800     1.6720 ca         1 FPU      -0.211000
     21 C15         -1.2610    -0.1760     0.5240 ca         1 FPU       0.504900
     22 C16          0.5540     0.0960    -0.8260 ca         1 FPU       0.380900
     23 C17         -3.6230     0.1270    -0.1550 c          1 FPU       0.663100
     24 C18         -6.0270     0.1270    -0.4690 cx         1 FPU       0.064700
     25 C19         -6.4340     1.5570    -0.5130 cx         1 FPU      -0.097400
     26 C20         -7.2200     0.5890     0.3280 cx         1 FPU      -0.095400
     27 C21         -8.5950     0.1650    -0.0280 ca         1 FPU      -0.050300
     28 C22         -9.5170    -0.0780     0.9900 ca         1 FPU      -0.106500
     29 C23        -10.8150    -0.4770     0.7020 ca         1 FPU      -0.107500
     30 C24        -11.2160    -0.6440    -0.6170 ca         1 FPU      -0.109000
     31 C25        -10.3070    -0.4050    -1.6400 ca         1 FPU      -0.107500
     32 C26         -9.0120    -0.0030    -1.3490 ca         1 FPU      -0.106500
     33 H18         -6.2460    -0.4710    -1.3510 h1         1 FPU       0.086700
     34 H20         -7.0460     0.6690     1.3960 hc         1 FPU       0.083700
     35 H1           5.8260     3.4830    -1.2630 h1         1 FPU       0.042700
     36 H1A          5.9160     3.6060     0.5090 h1         1 FPU       0.042700
     37 H1B          7.1460     4.3890    -0.5000 h1         1 FPU       0.042700
     38 H3           4.7510     1.7410    -0.1730 ha         1 FPU       0.136000
     39 H6           2.1960    -2.3340     0.2720 ha         1 FPU       0.132000
     40 H7           3.9460    -4.0540     0.2970 h4         1 FPU       0.016100
     41 H9           7.9650    -2.0350    -0.0760 ha         1 FPU       0.139000
     42 H11          9.8770    -1.2630    -1.1320 h1         1 FPU       0.044700
     43 H11A        10.9660    -0.0590    -0.4120 h1         1 FPU       0.044700
     44 H11B         9.9990    -1.1140     0.6360 h1         1 FPU       0.044700
     45 H13          1.5540    -0.0320     2.3950 ha         1 FPU       0.135000
     46 H14         -0.8970    -0.2800     2.6560 ha         1 FPU       0.124000
     47 H16          0.9340     0.2060    -1.8370 h4         1 FPU       0.040100
     48 HN3         -2.9150    -0.6840     1.5870 hn         1 FPU       0.149000
     49 HN4         -4.9590    -0.9840     0.9360 hn         1 FPU       0.313500
     50 H19         -5.8200     2.2800     0.0080 hc         1 FPU       0.086200
     51 H19A        -6.8820     1.9210    -1.4290 hc         1 FPU       0.086200
     52 H22         -9.2130     0.0470     2.0230 ha         1 FPU       0.111000
     53 H23        -11.5120    -0.6580     1.5100 ha         1 FPU       0.113500
     54 H24        -12.2270    -0.9550    -0.8470 ha         1 FPU       0.114000
     55 H25        -10.6080    -0.5310    -2.6720 ha         1 FPU       0.113500
     56 H26         -8.3250     0.1780    -2.1690 ha         1 FPU       0.111000
     57 O2           9.0210     0.4560    -0.3230 os         1 FPU      -0.317100
     58 O3           2.7600     0.3250     0.0430 os         1 FPU      -0.236200
@<TRIPOS>BOND
     1     1     3 1   
     2     1    35 1   
     3     1    36 1   
     4     1    37 1   
     5     2    13 ar  
     6     2    14 ar  
     7     3     4 1   
     8     4     6 ar  
     9     4    16 ar  
    10     5    21 ar  
    11     5    22 ar  
    12     6     8 ar  
    13     6    38 1   
    14     7    21 1   
    15     7    23 1   
    16     7    48 1   
    17     8    11 ar  
    18     8    14 ar  
    19     9    23 1   
    20     9    24 1   
    21     9    49 1   
    22    10    23 2   
    23    11    12 ar  
    24    11    58 1   
    25    12    13 ar  
    26    12    39 1   
    27    13    40 1   
    28    14    15 ar  
    29    15    16 ar  
    30    15    41 1   
    31    16    57 1   
    32    17    42 1   
    33    17    43 1   
    34    17    44 1   
    35    17    57 1   
    36    18    19 ar  
    37    18    22 ar  
    38    18    58 1   
    39    19    20 ar  
    40    19    45 1   
    41    20    21 ar  
    42    20    46 1   
    43    22    47 1   
    44    24    25 1   
    45    24    26 1   
    46    24    33 1   
    47    25    26 1   
    48    25    50 1   
    49    25    51 1   
    50    26    27 1   
    51    26    34 1   
    52    27    28 ar  
    53    27    32 ar  
    54    28    29 ar  
    55    28    52 1   
    56    29    30 ar  
    57    29    53 1   
    58    30    31 ar  
    59    30    54 1   
    60    31    32 ar  
    61    31    55 1   
    62    32    56 1   
@<TRIPOS>SUBSTRUCTURE
     1 FPU         1 TEMP              0 ****  ****    0 ROOT
