@<TRIPOS>MOLECULE
FPW
   62    66     1     0     0
SMALL
No Charge or Current Charge


@<TRIPOS>ATOM
      1 C1          -1.9940     1.1060    -1.3830 ca         1 FPW      -0.006900
      2 C2          -1.2570     0.9580    -0.1830 ca         1 FPW       0.373900
      3 N3           0.0960     1.0300    -0.1300 nb         1 FPW      -0.719000
      4 C4           0.7550     1.2510    -1.2830 ca         1 FPW       0.494900
      5 C5           0.1090     1.3900    -2.5280 ca         1 FPW      -0.176000
      6 C6          -1.2940     1.3150    -2.5810 ca         1 FPW      -0.057000
      7 C7          -5.2190     0.5210     0.0710 ca         1 FPW      -0.093000
      8 C8          -6.0160     0.9340     1.1660 ca         1 FPW       0.305000
      9 N9          -5.8000     2.1030     1.8110 nb         1 FPW      -0.686000
     10 C10         -4.7960     2.9030     1.3940 ca         1 FPW       0.378900
     11 C11         -3.9620     2.5730     0.3220 ca         1 FPW      -0.262000
     12 C12         -4.1680     1.3600    -0.3470 ca         1 FPW       0.184100
     13 C13         -6.5330    -1.5350    -0.1370 ca         1 FPW       0.115100
     14 C14         -7.3300    -1.1250     0.9570 ca         1 FPW       0.147100
     15 C15         -7.0630     0.1050     1.5970 ca         1 FPW      -0.185000
     16 C16         -5.4770    -0.7080    -0.5770 ca         1 FPW      -0.154000
     17 O17         -3.3700     1.0140    -1.4160 os         1 FPW      -0.237200
     18 O18         -6.8160    -2.7470    -0.7470 os         1 FPW      -0.320100
     19 O19         -8.3600    -1.9540     1.3710 os         1 FPW      -0.318100
     20 C20         -6.0610    -3.2470    -1.8650 c3         1 FPW       0.143900
     21 C21         -9.2250    -1.6250     2.4730 c3         1 FPW       0.142900
     22 N22          2.1350     1.2940    -1.0690 ns         1 FPW      -0.319900
     23 N23          6.1940     0.9120     0.3640 n          1 FPW      -0.252000
     24 C24          4.8290     0.9750    -0.0040 c          1 FPW       0.564200
     25 C25          6.5590     0.2600     1.6470 c3         1 FPW       0.138300
     26 C26          7.2020     1.4220    -0.4460 cc         1 FPW      -0.006400
     27 C27          4.5430     1.6320    -1.3120 cc         1 FPW      -0.311400
     28 C29          6.9350    -1.2090     1.4850 ca         1 FPW      -0.113300
     29 C30          6.9300     2.0250    -1.6490 cd         1 FPW      -0.314000
     30 C31          5.5730     2.1370    -2.0980 cd         1 FPW      -0.012000
     31 C32          3.1560     1.7810    -1.8450 c          1 FPW       0.642300
     32 C33          8.2820    -1.5830     1.3020 ca         1 FPW      -0.085000
     33 C34          5.9390    -2.2050     1.5140 ca         1 FPW      -0.085000
     34 O35          2.9320     2.3210    -2.9200 o          1 FPW      -0.604100
     35 C36          8.6270    -2.9370     1.1490 ca         1 FPW      -0.110000
     36 C37          6.2850    -3.5580     1.3600 ca         1 FPW      -0.110000
     37 C38          7.6290    -3.9250     1.1780 ca         1 FPW      -0.096000
     38 H2          -1.7620     0.7700     0.7640 h4         1 FPW       0.033100
     39 H5           0.6730     1.5390    -3.4420 ha         1 FPW       0.160000
     40 H6          -1.8250     1.4150    -3.5250 ha         1 FPW       0.134000
     41 H10         -4.6620     3.8380     1.9360 h4         1 FPW       0.016100
     42 H11         -3.1760     3.2570     0.0180 ha         1 FPW       0.134000
     43 H15         -7.6610     0.4390     2.4380 ha         1 FPW       0.139000
     44 H16         -4.8540    -1.0070    -1.4150 ha         1 FPW       0.135000
     45 H20         -6.1210    -2.5580    -2.7170 h1         1 FPW       0.042367
     46 H20A        -5.0060    -3.3830    -1.5940 h1         1 FPW       0.042367
     47 H20B        -6.4570    -4.2180    -2.1860 h1         1 FPW       0.042367
     48 H21         -9.7650    -0.6900     2.2800 h1         1 FPW       0.044033
     49 H21A        -9.9650    -2.4200     2.6240 h1         1 FPW       0.044033
     50 H21B        -8.6500    -1.5160     3.4020 h1         1 FPW       0.044033
     51 HN22         2.4180     0.9100    -0.1790 hn         1 FPW       0.211000
     52 H25          7.4060     0.8010     2.0880 h1         1 FPW       0.069700
     53 H25A         5.7370     0.3500     2.3690 h1         1 FPW       0.069700
     54 H26          8.1960     1.2870    -0.0280 h4         1 FPW       0.205000
     55 H30          7.7420     2.4150    -2.2600 ha         1 FPW       0.210000
     56 H31          5.3720     2.6180    -3.0550 ha         1 FPW       0.216000
     57 H33          9.0630    -0.8260     1.2790 ha         1 FPW       0.113000
     58 H34          4.8960    -1.9310     1.6540 ha         1 FPW       0.113000
     59 H36          9.6680    -3.2190     1.0080 ha         1 FPW       0.116500
     60 H37          5.5110    -4.3230     1.3830 ha         1 FPW       0.116500
     61 H38          7.8960    -4.9730     1.0590 ha         1 FPW       0.116000
     62 O28          3.9640     0.5130     0.7280 o          1 FPW      -0.566000
@<TRIPOS>BOND
     1     1     2 ar  
     2     1     6 ar  
     3     1    17 1   
     4     2     3 ar  
     5     2    38 1   
     6     3     4 ar  
     7     4     5 ar  
     8     4    22 1   
     9     5     6 ar  
    10     5    39 1   
    11     6    40 1   
    12     7     8 ar  
    13     7    12 ar  
    14     7    16 ar  
    15     8     9 ar  
    16     8    15 ar  
    17     9    10 ar  
    18    10    11 ar  
    19    10    41 1   
    20    11    12 ar  
    21    11    42 1   
    22    12    17 1   
    23    13    14 ar  
    24    13    16 ar  
    25    13    18 1   
    26    14    15 ar  
    27    14    19 1   
    28    15    43 1   
    29    16    44 1   
    30    18    20 1   
    31    19    21 1   
    32    20    45 1   
    33    20    46 1   
    34    20    47 1   
    35    21    48 1   
    36    21    49 1   
    37    21    50 1   
    38    22    31 1   
    39    22    51 1   
    40    23    24 1   
    41    23    25 1   
    42    23    26 1   
    43    24    27 1   
    44    24    62 2   
    45    25    28 1   
    46    25    52 1   
    47    25    53 1   
    48    26    29 2   
    49    26    54 1   
    50    27    30 2   
    51    27    31 1   
    52    28    32 ar  
    53    28    33 ar  
    54    29    30 1   
    55    29    55 1   
    56    30    56 1   
    57    31    34 2   
    58    32    35 ar  
    59    32    57 1   
    60    33    36 ar  
    61    33    58 1   
    62    35    37 ar  
    63    35    59 1   
    64    36    37 ar  
    65    36    60 1   
    66    37    61 1   
@<TRIPOS>SUBSTRUCTURE
     1 FPW         1 TEMP              0 ****  ****    0 ROOT
