@<TRIPOS>MOLECULE
FPW
   62    66     1     0     0
SMALL
bcc


@<TRIPOS>ATOM
      1 C1          -1.6290     0.1560    -0.6160 ca         1 FPW      -0.072200
      2 C2          -0.7180    -0.2930     0.3230 ca         1 FPW       0.439200
      3 N3           0.5700     0.0000     0.2550 nb         1 FPW      -0.719000
      4 C4           1.0170     0.7520    -0.7470 ca         1 FPW       0.560200
      5 C5           0.1690     1.2470    -1.7430 ca         1 FPW      -0.259300
      6 C6          -1.1770     0.9400    -1.6620 ca         1 FPW      -0.075000
      7 C7          -5.1350     0.0730     0.2540 ca         1 FPW      -0.158300
      8 C8          -6.0440     0.8280     1.0260 ca         1 FPW       0.435600
      9 N9          -5.6910     1.9470     1.6980 nb         1 FPW      -0.686000
     10 C10         -4.4430     2.3330     1.6190 ca         1 FPW       0.444200
     11 C11         -3.4450     1.6690     0.8890 ca         1 FPW      -0.345300
     12 C12         -3.7980     0.5300     0.2060 ca         1 FPW       0.184100
     13 C13         -6.8870    -1.4810    -0.3410 ca         1 FPW       0.115100
     14 C14         -7.8140    -0.7220     0.4460 ca         1 FPW       0.147100
     15 C15         -7.3910     0.4000     1.1050 ca         1 FPW      -0.268300
     16 C16         -5.5810    -1.0860    -0.4270 ca         1 FPW      -0.172000
     17 O17         -2.9480    -0.2140    -0.5330 os         1 FPW      -0.237200
     18 O18         -7.4150    -2.5550    -0.9440 os         1 FPW      -0.296900
     19 O19         -9.0600    -1.2050     0.4600 os         1 FPW      -0.294900
     20 C20         -6.5630    -3.3540    -1.7420 c3         1 FPW       0.120700
     21 C21        -10.0350    -0.5140     1.2200 c3         1 FPW       0.119700
     22 N22          2.3840     0.9750    -0.6810 ns         1 FPW      -0.553400
     23 N23          6.5170     1.2420     0.2260 n          1 FPW      -0.319000
     24 C24          5.1530     1.0840     0.0190 c          1 FPW       0.706700
     25 C25          7.0970     0.5760     1.3940 c3         1 FPW       0.138300
     26 C26          7.3130     1.9490    -0.6010 cc         1 FPW       0.043600
     27 C27          4.6220     1.7310    -1.1580 cc         1 FPW      -0.311400
     28 C29          7.1830    -0.9180     1.2190 ca         1 FPW      -0.113300
     29 C30          6.8250     2.5600    -1.7150 cd         1 FPW      -0.264000
     30 C31          5.4580     2.4380    -1.9850 cd         1 FPW       0.038000
     31 C32          3.1780     1.6730    -1.5300 c          1 FPW       0.709300
     32 C33          7.8800    -1.4660     0.1460 ca         1 FPW      -0.103000
     33 C34          6.5920    -1.7680     2.1460 ca         1 FPW      -0.103000
     34 O35          2.7700     2.2290    -2.5370 o          1 FPW      -0.604100
     35 C36          7.9810    -2.8420     0.0010 ca         1 FPW      -0.128000
     36 C37          6.7000    -3.1460     2.0100 ca         1 FPW      -0.128000
     37 C38          7.3910    -3.6860     0.9340 ca         1 FPW      -0.114000
     38 H2          -1.0390    -0.9120     1.1540 h4         1 FPW       0.033100
     39 H5           0.5400     1.8490    -2.5540 ha         1 FPW       0.178000
     40 H6          -1.8620     1.3050    -2.4170 ha         1 FPW       0.152000
     41 H10         -4.1750     3.2330     2.1610 h4         1 FPW       0.016100
     42 H11         -2.4390     2.0630     0.8840 ha         1 FPW       0.152000
     43 H15         -8.0660     0.9910     1.7080 ha         1 FPW       0.157000
     44 H16         -4.8760    -1.6530    -1.0180 ha         1 FPW       0.153000
     45 H20         -6.1440    -2.7880    -2.5770 h1         1 FPW       0.042367
     46 H20A        -5.7440    -3.7800    -1.1560 h1         1 FPW       0.042367
     47 H20B        -7.1760    -4.1620    -2.1330 h1         1 FPW       0.042367
     48 H21        -10.1790     0.5070     0.8590 h1         1 FPW       0.044033
     49 H21A       -10.9640    -1.0660     1.1030 h1         1 FPW       0.044033
     50 H21B        -9.7710    -0.4820     2.2800 h1         1 FPW       0.044033
     51 HN22         2.8560     0.5540     0.1200 hn         1 FPW       0.377500
     52 H25          8.0900     1.0000     1.5410 h1         1 FPW       0.069700
     53 H25A         6.5080     0.8290     2.2740 h1         1 FPW       0.069700
     54 H26          8.3560     2.0050    -0.3240 h4         1 FPW       0.155000
     55 H30          7.4840     3.1210    -2.3590 ha         1 FPW       0.160000
     56 H31          5.0480     2.9150    -2.8650 ha         1 FPW       0.166000
     57 H33          8.3550    -0.8220    -0.5860 ha         1 FPW       0.131000
     58 H34          6.0450    -1.3510     2.9820 ha         1 FPW       0.131000
     59 H36          8.5230    -3.2560    -0.8390 ha         1 FPW       0.134500
     60 H37          6.2360    -3.7960     2.7400 ha         1 FPW       0.134500
     61 H38          7.4720    -4.7600     0.8220 ha         1 FPW       0.134000
     62 O28          4.5050     0.4240     0.8340 o          1 FPW      -0.641500
@<TRIPOS>BOND
     1     1     2 ar  
     2     1     6 ar  
     3     1    17 1   
     4     2     3 ar  
     5     2    38 1   
     6     3     4 ar  
     7     4     5 ar  
     8     4    22 1   
     9     5     6 ar  
    10     5    39 1   
    11     6    40 1   
    12     7     8 ar  
    13     7    12 ar  
    14     7    16 ar  
    15     8     9 ar  
    16     8    15 ar  
    17     9    10 ar  
    18    10    11 ar  
    19    10    41 1   
    20    11    12 ar  
    21    11    42 1   
    22    12    17 1   
    23    13    14 ar  
    24    13    16 ar  
    25    13    18 1   
    26    14    15 ar  
    27    14    19 1   
    28    15    43 1   
    29    16    44 1   
    30    18    20 1   
    31    19    21 1   
    32    20    45 1   
    33    20    46 1   
    34    20    47 1   
    35    21    48 1   
    36    21    49 1   
    37    21    50 1   
    38    22    31 1   
    39    22    51 1   
    40    23    24 1   
    41    23    25 1   
    42    23    26 1   
    43    24    27 1   
    44    24    62 2   
    45    25    28 1   
    46    25    52 1   
    47    25    53 1   
    48    26    29 2   
    49    26    54 1   
    50    27    30 2   
    51    27    31 1   
    52    28    32 ar  
    53    28    33 ar  
    54    29    30 1   
    55    29    55 1   
    56    30    56 1   
    57    31    34 2   
    58    32    35 ar  
    59    32    57 1   
    60    33    36 ar  
    61    33    58 1   
    62    35    37 ar  
    63    35    59 1   
    64    36    37 ar  
    65    36    60 1   
    66    37    61 1   
@<TRIPOS>SUBSTRUCTURE
     1 FPW         1 TEMP              0 ****  ****    0 ROOT
