@<TRIPOS>MOLECULE
FPX
   61    65     1     0     0
SMALL
No Charge or Current Charge


@<TRIPOS>ATOM
      1 C1           1.0640     4.9010    -0.7310 c3         1 FPX      -0.047800
      2 C2          -0.1770     4.0190    -0.6420 ca         1 FPX      -0.062300
      3 C3          -1.4300     4.5390    -1.0150 ca         1 FPX      -0.086000
      4 C4          -2.5820     3.7390    -0.9480 ca         1 FPX      -0.157000
      5 C5          -2.5070     2.4060    -0.5100 ca         1 FPX      -0.030000
      6 N6          -3.7190     1.6600    -0.4700 ns         1 FPX      -0.138000
      7 C7          -3.9990     0.3330    -0.1610 c          1 FPX       0.621700
      8 O8          -3.1360    -0.4830     0.1450 o          1 FPX      -0.575100
      9 C9          -5.4620    -0.0660    -0.2270 ca         1 FPX      -0.159600
     10 C10         -6.4810     0.8530    -0.5780 ca         1 FPX      -0.060000
     11 C11         -7.8220     0.4390    -0.6330 ca         1 FPX      -0.124000
     12 C12         -8.1710    -0.8860    -0.3370 ca         1 FPX      -0.038000
     13 C13         -7.1760    -1.8180     0.0250 ca         1 FPX      -0.206300
     14 C14         -5.8280    -1.4000     0.0700 ca         1 FPX      -0.009000
     15 C15         -7.5380    -3.2730     0.3420 c3         1 FPX       0.359300
     16 F16         -8.8330    -3.4230     0.7020 f          1 FPX      -0.111000
     17 F17         -7.3300    -4.0740    -0.7260 f          1 FPX      -0.111000
     18 F18         -6.7960    -3.7700     1.3590 f          1 FPX      -0.111000
     19 C19         -1.2500     1.8850    -0.1320 ca         1 FPX      -0.113000
     20 C20         -0.0910     2.6820    -0.1930 ca         1 FPX      -0.010800
     21 C21          1.1890     2.1030     0.2070 cc         1 FPX      -0.153400
     22 C22          1.7810     1.2900    -0.7320 cd         1 FPX      -0.042200
     23 C23          3.0640     0.6650    -0.4400 ca         1 FPX      -0.289800
     24 C24          3.7200    -0.1720    -1.3580 ca         1 FPX       0.202900
     25 N25          4.9050    -0.7370    -1.0640 nb         1 FPX      -0.247000
     26 C26          5.4130    -0.4640     0.1500 ca         1 FPX       0.431900
     27 N27          6.6480    -0.9910     0.4960 nu         1 FPX      -0.917900
     28 C28          7.5170    -1.9230    -0.0810 ca         1 FPX       0.309000
     29 C29          8.8860    -1.8480     0.2330 ca         1 FPX      -0.147000
     30 C30          9.7980    -2.7700    -0.3110 ca         1 FPX      -0.083500
     31 C31          9.3420    -3.7830    -1.1700 ca         1 FPX      -0.134000
     32 C32          7.9750    -3.8770    -1.4780 ca         1 FPX      -0.083500
     33 C33          7.0670    -2.9530    -0.9320 ca         1 FPX      -0.147000
     34 N34          4.8740     0.3290     1.0870 nb         1 FPX      -0.314000
     35 C35          3.6860     0.8960     0.7930 ca         1 FPX       0.313900
     36 N36          3.0630     1.7460     1.7680 n          1 FPX      -0.363300
     37 C37          3.7540     1.9700     3.0690 c3         1 FPX       0.079300
     38 C38          1.8120     2.3710     1.5310 c          1 FPX       0.570200
     39 O39          1.2750     3.0870     2.3680 o          1 FPX      -0.525000
     40 H1           1.4480     5.1420     0.2670 hc         1 FPX       0.045700
     41 H1A          1.8660     4.4020    -1.2890 hc         1 FPX       0.045700
     42 H1B          0.8550     5.8480    -1.2420 hc         1 FPX       0.045700
     43 H3          -1.5140     5.5680    -1.3600 ha         1 FPX       0.114000
     44 H4          -3.5400     4.1630    -1.2420 ha         1 FPX       0.108000
     45 HN6         -4.5340     2.2060    -0.7140 hn         1 FPX       0.152000
     46 H10         -6.2560     1.8900    -0.8150 ha         1 FPX       0.119000
     47 H11         -8.5960     1.1520    -0.9080 ha         1 FPX       0.126000
     48 H12         -9.2180    -1.1820    -0.3930 ha         1 FPX       0.135000
     49 H14         -5.0580    -2.1230     0.3360 ha         1 FPX       0.152000
     50 H19         -1.1470     0.8640     0.2210 ha         1 FPX       0.149000
     51 H22          1.2920     1.1220    -1.6900 ha         1 FPX       0.197000
     52 H24          3.2980    -0.3920    -2.3370 h4         1 FPX       0.028100
     53 HN27         7.0280    -0.5390     1.3260 hn         1 FPX       0.510000
     54 H29          9.2490    -1.0680     0.8960 ha         1 FPX       0.130000
     55 H30         10.8560    -2.6990    -0.0670 ha         1 FPX       0.114000
     56 H31         10.0460    -4.4980    -1.5910 ha         1 FPX       0.116000
     57 H32          7.6190    -4.6680    -2.1340 ha         1 FPX       0.114000
     58 H33          6.0120    -3.0570    -1.1620 ha         1 FPX       0.130000
     59 H37          4.7510     2.3920     2.8890 h1         1 FPX       0.060367
     60 H37A         3.2030     2.6630     3.7160 h1         1 FPX       0.060367
     61 H37B         3.8610     1.0150     3.5980 h1         1 FPX       0.060367
@<TRIPOS>BOND
     1     1     2 1   
     2     1    40 1   
     3     1    41 1   
     4     1    42 1   
     5     2     3 ar  
     6     2    20 ar  
     7     3     4 ar  
     8     3    43 1   
     9     4     5 ar  
    10     4    44 1   
    11     5     6 1   
    12     5    19 ar  
    13     6     7 1   
    14     6    45 1   
    15     7     8 2   
    16     7     9 1   
    17     9    10 ar  
    18     9    14 ar  
    19    10    11 ar  
    20    10    46 1   
    21    11    12 ar  
    22    11    47 1   
    23    12    13 ar  
    24    12    48 1   
    25    13    14 ar  
    26    13    15 1   
    27    14    49 1   
    28    15    16 1   
    29    15    17 1   
    30    15    18 1   
    31    19    20 ar  
    32    19    50 1   
    33    20    21 1   
    34    21    22 2   
    35    21    38 1   
    36    22    23 1   
    37    22    51 1   
    38    23    24 ar  
    39    23    35 ar  
    40    24    25 ar  
    41    24    52 1   
    42    25    26 ar  
    43    26    27 1   
    44    26    34 ar  
    45    27    28 1   
    46    27    53 1   
    47    28    29 ar  
    48    28    33 ar  
    49    29    30 ar  
    50    29    54 1   
    51    30    31 ar  
    52    30    55 1   
    53    31    32 ar  
    54    31    56 1   
    55    32    33 ar  
    56    32    57 1   
    57    33    58 1   
    58    34    35 ar  
    59    35    36 1   
    60    36    37 1   
    61    36    38 1   
    62    37    59 1   
    63    37    60 1   
    64    37    61 1   
    65    38    39 2   
@<TRIPOS>SUBSTRUCTURE
     1 FPX         1 TEMP              0 ****  ****    0 ROOT
