@<TRIPOS>MOLECULE
FPX
   61    65     1     0     0
SMALL
bcc


@<TRIPOS>ATOM
      1 C1           1.0070     4.8730    -0.8910 c3         1 FPX      -0.047800
      2 C2          -0.2100     4.0130    -0.7220 ca         1 FPX      -0.062300
      3 C3          -1.4740     4.5190    -1.0080 ca         1 FPX      -0.104000
      4 C4          -2.6150     3.7470    -0.8890 ca         1 FPX      -0.175000
      5 C5          -2.5280     2.4170    -0.4830 ca         1 FPX       0.062600
      6 N6          -3.7310     1.7070    -0.3910 ns         1 FPX      -0.464100
      7 C7          -3.9370     0.4100    -0.0640 c          1 FPX       0.688700
      8 O8          -3.0460    -0.3920     0.1580 o          1 FPX      -0.575100
      9 C9          -5.3740    -0.0040    -0.0040 ca         1 FPX      -0.159600
     10 C10         -6.4100     0.8810     0.2940 ca         1 FPX      -0.078000
     11 C11         -7.7170     0.4290     0.3600 ca         1 FPX      -0.142000
     12 C12         -8.0110    -0.9060     0.1240 ca         1 FPX      -0.056000
     13 C13         -6.9810    -1.7910    -0.1640 ca         1 FPX      -0.206300
     14 C14         -5.6670    -1.3450    -0.2170 ca         1 FPX      -0.027000
     15 C15         -7.2500    -3.2390    -0.4350 c3         1 FPX       0.723200
     16 F16         -8.5300    -3.5690    -0.2470 f          1 FPX      -0.232300
     17 F17         -6.9400    -3.5690    -1.6970 f          1 FPX      -0.232300
     18 F18         -6.5170    -4.0340     0.3560 f          1 FPX      -0.232300
     19 C19         -1.2710     1.8910    -0.1900 ca         1 FPX      -0.131000
     20 C20         -0.1290     2.6810    -0.3010 ca         1 FPX      -0.010800
     21 C21          1.1760     2.0500    -0.0050 cc         1 FPX      -0.153400
     22 C22          1.6870     1.0690    -0.7770 cd         1 FPX       0.007800
     23 C23          2.9380     0.4760    -0.4610 ca         1 FPX      -0.420400
     24 C24          3.5560    -0.5230    -1.2050 ca         1 FPX       0.531200
     25 N25          4.7260    -1.0420    -0.8980 nb         1 FPX      -0.773000
     26 C26          5.3190    -0.5480     0.1940 ca         1 FPX       0.957900
     27 N27          6.5330    -1.0160     0.5730 nu         1 FPX      -0.724300
     28 C28          7.3820    -1.9720     0.0190 ca         1 FPX       0.170600
     29 C29          8.6370    -2.1030     0.6250 ca         1 FPX      -0.165000
     30 C30          9.5550    -3.0270     0.1610 ca         1 FPX      -0.101500
     31 C31          9.2450    -3.8450    -0.9190 ca         1 FPX      -0.152000
     32 C32          8.0020    -3.7180    -1.5190 ca         1 FPX      -0.101500
     33 C33          7.0680    -2.7960    -1.0650 ca         1 FPX      -0.165000
     34 N34          4.8270     0.4010     0.9880 nb         1 FPX      -0.840000
     35 C35          3.6510     0.9100     0.6730 ca         1 FPX       0.642200
     36 N36          3.1120     1.8820     1.4680 n          1 FPX      -0.430300
     37 C37          3.8070     2.3370     2.6660 c3         1 FPX       0.079300
     38 C38          1.8900     2.4860     1.1920 c          1 FPX       0.712700
     39 O39          1.4560     3.3390     1.9500 o          1 FPX      -0.600500
     40 H1           1.3970     5.2100     0.0700 hc         1 FPX       0.045700
     41 H1A          1.8130     4.3390    -1.3950 hc         1 FPX       0.045700
     42 H1B          0.7760     5.7590    -1.4820 hc         1 FPX       0.045700
     43 H3          -1.5720     5.5450    -1.3430 ha         1 FPX       0.132000
     44 H4          -3.5800     4.1820    -1.1220 ha         1 FPX       0.126000
     45 HN6         -4.5440     2.2430    -0.6500 hn         1 FPX       0.318500
     46 H10         -6.2140     1.9250     0.5030 ha         1 FPX       0.137000
     47 H11         -8.5130     1.1190     0.6000 ha         1 FPX       0.144000
     48 H12         -9.0380    -1.2390     0.1730 ha         1 FPX       0.153000
     49 H14         -4.8590    -2.0340    -0.4300 ha         1 FPX       0.170000
     50 H19         -1.1610     0.8680     0.1330 ha         1 FPX       0.167000
     51 H22          1.1550     0.7300    -1.6590 ha         1 FPX       0.147000
     52 H24          3.0650    -0.9100    -2.0920 h4         1 FPX       0.028100
     53 HN27         6.8900    -0.5530     1.3960 hn         1 FPX       0.454800
     54 H29          8.8930    -1.4710     1.4680 ha         1 FPX       0.148000
     55 H30         10.5190    -3.1050     0.6460 ha         1 FPX       0.132000
     56 H31          9.9630    -4.5670    -1.2860 ha         1 FPX       0.134000
     57 H32          7.7420    -4.3470    -2.3610 ha         1 FPX       0.132000
     58 H33          6.1090    -2.7190    -1.5480 ha         1 FPX       0.148000
     59 H37          4.1100     3.3770     2.5570 h1         1 FPX       0.060367
     60 H37A         3.1540     2.2500     3.5310 h1         1 FPX       0.060367
     61 H37B         4.6860     1.7250     2.8210 h1         1 FPX       0.060367
@<TRIPOS>BOND
     1     1     2 1   
     2     1    40 1   
     3     1    41 1   
     4     1    42 1   
     5     2     3 ar  
     6     2    20 ar  
     7     3     4 ar  
     8     3    43 1   
     9     4     5 ar  
    10     4    44 1   
    11     5     6 1   
    12     5    19 ar  
    13     6     7 1   
    14     6    45 1   
    15     7     8 2   
    16     7     9 1   
    17     9    10 ar  
    18     9    14 ar  
    19    10    11 ar  
    20    10    46 1   
    21    11    12 ar  
    22    11    47 1   
    23    12    13 ar  
    24    12    48 1   
    25    13    14 ar  
    26    13    15 1   
    27    14    49 1   
    28    15    16 1   
    29    15    17 1   
    30    15    18 1   
    31    19    20 ar  
    32    19    50 1   
    33    20    21 1   
    34    21    22 2   
    35    21    38 1   
    36    22    23 1   
    37    22    51 1   
    38    23    24 ar  
    39    23    35 ar  
    40    24    25 ar  
    41    24    52 1   
    42    25    26 ar  
    43    26    27 1   
    44    26    34 ar  
    45    27    28 1   
    46    27    53 1   
    47    28    29 ar  
    48    28    33 ar  
    49    29    30 ar  
    50    29    54 1   
    51    30    31 ar  
    52    30    55 1   
    53    31    32 ar  
    54    31    56 1   
    55    32    33 ar  
    56    32    57 1   
    57    33    58 1   
    58    34    35 ar  
    59    35    36 1   
    60    36    37 1   
    61    36    38 1   
    62    37    59 1   
    63    37    60 1   
    64    37    61 1   
    65    38    39 2   
@<TRIPOS>SUBSTRUCTURE
     1 FPX         1 TEMP              0 ****  ****    0 ROOT
