@<TRIPOS>MOLECULE
FPY
   14    14     1     0     0
SMALL
bcc


@<TRIPOS>ATOM
      1 N1          -1.0580     1.2240    -0.3230 ns         1 FPY      -0.480100
      2 C2          -1.5960     0.0110    -0.0090 c          1 FPY       0.830500
      3 O2          -2.7910    -0.2260    -0.1150 o          1 FPY      -0.651500
      4 N3          -0.7040    -0.8980     0.4770 ns         1 FPY      -0.582900
      5 C4           0.7260    -0.8540     0.3640 c6         1 FPY       0.367700
      6 O4           1.1590    -1.5900    -0.7590 oh         1 FPY      -0.608800
      7 C5           1.1210     0.5760     0.2410 c2         1 FPY      -0.014700
      8 F5           2.4250     0.8350     0.4550 f          1 FPY      -0.165500
      9 C6           0.2750     1.5290    -0.1150 c2         1 FPY      -0.013400
     10 HN1         -1.6870     1.9490    -0.6290 hn         1 FPY       0.347500
     11 HN3         -1.1040    -1.7920     0.7210 hn         1 FPY       0.330500
     12 H4           1.1520    -1.2880     1.2740 h2         1 FPY       0.056700
     13 HO4          1.8990    -2.1470    -0.4990 ho         1 FPY       0.420000
     14 H6           0.5640     2.5600    -0.2570 h4         1 FPY       0.165000
@<TRIPOS>BOND
     1     1     2 1   
     2     1     9 1   
     3     1    10 1   
     4     2     3 2   
     5     2     4 1   
     6     4     5 1   
     7     4    11 1   
     8     5     6 1   
     9     5     7 1   
    10     5    12 1   
    11     6    13 1   
    12     7     8 1   
    13     7     9 2   
    14     9    14 1   
@<TRIPOS>SUBSTRUCTURE
     1 FPY         1 TEMP              0 ****  ****    0 ROOT
