@<TRIPOS>MOLECULE
FPY
   14    14     1     0     0
SMALL
No Charge or Current Charge


@<TRIPOS>ATOM
      1 N1          -1.0580     1.2540    -0.2000 ns         1 FPY      -0.413100
      2 C2          -1.6470     0.0330     0.0110 c          1 FPY       0.621000
      3 O2          -2.8510    -0.1310    -0.0560 o          1 FPY      -0.576000
      4 N3          -0.7870    -0.9950     0.3030 ns         1 FPY      -0.515900
      5 C4           0.6630    -0.9050     0.4290 c6         1 FPY       0.390900
      6 O4           1.2160    -1.8320    -0.4940 oh         1 FPY      -0.671000
      7 C5           1.1690     0.5080     0.1350 c2         1 FPY      -0.014700
      8 F5           2.4980     0.6730     0.2060 f          1 FPY      -0.165500
      9 C6           0.3230     1.5020    -0.1520 c2         1 FPY      -0.063400
     10 HN1         -1.6950     2.0130    -0.4170 hn         1 FPY       0.347500
     11 HN3         -1.2100    -1.9020     0.4340 hn         1 FPY       0.330500
     12 H4           0.9430    -1.1850     1.4560 h2         1 FPY       0.056700
     13 HO4          2.1840    -1.6710    -0.4690 ho         1 FPY       0.459000
     14 H6           0.6330     2.5280    -0.3600 h4         1 FPY       0.215000
@<TRIPOS>BOND
     1     1     2 1   
     2     1     9 1   
     3     1    10 1   
     4     2     3 2   
     5     2     4 1   
     6     4     5 1   
     7     4    11 1   
     8     5     6 1   
     9     5     7 1   
    10     5    12 1   
    11     6    13 1   
    12     7     8 1   
    13     7     9 2   
    14     9    14 1   
@<TRIPOS>SUBSTRUCTURE
     1 FPY         1 TEMP              0 ****  ****    0 ROOT
