@<TRIPOS>MOLECULE
FPZ
   34    36     1     0     0
SMALL
No Charge or Current Charge


@<TRIPOS>ATOM
      1 C10          2.2410     3.1830    -1.1610 ca         1 FPZ      -0.116667
      2 C01         -4.2270    -0.1600     0.9590 ca         1 FPZ      -0.102000
      3 C02         -3.4740    -1.3460     0.9170 ca         1 FPZ      -0.116667
      4 C03         -2.2320    -1.3680     0.2570 ca         1 FPZ      -0.088833
      5 C04         -1.7310    -0.2000    -0.3500 ca         1 FPZ       0.053333
      6 C05         -2.5010     0.9780    -0.3270 ca         1 FPZ      -0.088833
      7 C06         -3.7430     1.0010     0.3330 ca         1 FPZ      -0.116667
      8 C08          0.6930     1.3620    -0.6680 ca         1 FPZ       0.053333
      9 C09          1.5990     1.9910    -1.5410 ca         1 FPZ      -0.088833
     10 C11          1.9790     3.7520     0.0960 ca         1 FPZ      -0.102000
     11 C12          1.0760     3.1280     0.9730 ca         1 FPZ      -0.116667
     12 C13          0.4350     1.9350     0.5940 ca         1 FPZ      -0.088833
     13 C14          0.8920    -1.4300    -0.2540 ca         1 FPZ       0.053333
     14 C15          0.8900    -1.4370     1.1550 ca         1 FPZ      -0.088833
     15 C16          1.6660    -2.3750     1.8580 ca         1 FPZ      -0.116667
     16 C17          2.4490    -3.3080     1.1580 ca         1 FPZ      -0.102000
     17 C18          2.4550    -3.3030    -0.2470 ca         1 FPZ      -0.116667
     18 C19          1.6780    -2.3660    -0.9510 ca         1 FPZ      -0.088833
     19 P07         -0.1010    -0.2160    -1.2500 p3         1 FPZ      -0.345000
     20 H101         2.9410     3.6640    -1.8410 ha         1 FPZ       0.113000
     21 H021        -3.8530    -2.2480     1.3910 ha         1 FPZ       0.113000
     22 H031        -1.6650    -2.2940     0.2160 ha         1 FPZ       0.118500
     23 H051        -2.1370     1.8760    -0.8190 ha         1 FPZ       0.118500
     24 H061        -4.3300     1.9160     0.3550 ha         1 FPZ       0.113000
     25 H091         1.8060     1.5520    -2.5140 ha         1 FPZ       0.118500
     26 H111         2.4750     4.6740     0.3910 ha         1 FPZ       0.112000
     27 H121         0.8720     3.5670     1.9470 ha         1 FPZ       0.113000
     28 H131        -0.2610     1.4660     1.2820 ha         1 FPZ       0.118500
     29 H151         0.2840    -0.7250     1.7060 ha         1 FPZ       0.118500
     30 H161         1.6590    -2.3780     2.9460 ha         1 FPZ       0.113000
     31 H171         3.0490    -4.0340     1.7030 ha         1 FPZ       0.112000
     32 H181         3.0610    -4.0250    -0.7910 ha         1 FPZ       0.113000
     33 H191         1.6860    -2.3640    -2.0380 ha         1 FPZ       0.118500
     34 H011        -5.1880    -0.1430     1.4690 ha         1 FPZ       0.112000
@<TRIPOS>BOND
     1     1     9 ar  
     2     1    10 ar  
     3     1    20 1   
     4     2     3 ar  
     5     2     7 ar  
     6     2    34 1   
     7     3     4 ar  
     8     3    21 1   
     9     4     5 ar  
    10     4    22 1   
    11     5     6 ar  
    12     5    19 1   
    13     6     7 ar  
    14     6    23 1   
    15     7    24 1   
    16     8     9 ar  
    17     8    12 ar  
    18     8    19 1   
    19     9    25 1   
    20    10    11 ar  
    21    10    26 1   
    22    11    12 ar  
    23    11    27 1   
    24    12    28 1   
    25    13    14 ar  
    26    13    18 ar  
    27    13    19 1   
    28    14    15 ar  
    29    14    29 1   
    30    15    16 ar  
    31    15    30 1   
    32    16    17 ar  
    33    16    31 1   
    34    17    18 ar  
    35    17    32 1   
    36    18    33 1   
@<TRIPOS>SUBSTRUCTURE
     1 FPZ         1 TEMP              0 ****  ****    0 ROOT
