@<TRIPOS>MOLECULE
FPZ
   34    36     1     0     0
SMALL
abcg2


@<TRIPOS>ATOM
      1 C10          2.3650     3.2200    -0.5790 ca         1 FPZ      -0.116667
      2 C01         -4.1840    -0.2370     0.7300 ca         1 FPZ      -0.102000
      3 C02         -3.1720    -1.0260     1.2590 ca         1 FPZ      -0.116667
      4 C03         -1.8970    -0.9930     0.7070 ca         1 FPZ      -0.088833
      5 C04         -1.6210    -0.1740    -0.3850 ca         1 FPZ       0.053333
      6 C05         -2.6500     0.6040    -0.9200 ca         1 FPZ      -0.088833
      7 C06         -3.9190     0.5820    -0.3610 ca         1 FPZ      -0.116667
      8 C08          0.6950     1.4760    -0.4510 ca         1 FPZ       0.053333
      9 C09          1.7890     2.0640    -1.0870 ca         1 FPZ      -0.088833
     10 C11          1.8420     3.8120     0.5640 ca         1 FPZ      -0.102000
     11 C12          0.7450     3.2410     1.1960 ca         1 FPZ      -0.116667
     12 C13          0.1760     2.0780     0.6940 ca         1 FPZ      -0.088833
     13 C14          0.9730    -1.3630    -0.3430 ca         1 FPZ       0.053333
     14 C15          1.7420    -1.1500     0.8000 ca         1 FPZ      -0.088833
     15 C16          2.4410    -2.1990     1.3840 ca         1 FPZ      -0.116667
     16 C17          2.3750    -3.4730     0.8370 ca         1 FPZ      -0.102000
     17 C18          1.6120    -3.6960    -0.3020 ca         1 FPZ      -0.116667
     18 C19          0.9240    -2.6450    -0.8930 ca         1 FPZ      -0.088833
     19 P07          0.0170    -0.0550    -1.1960 p3         1 FPZ      -0.345000
     20 H101         3.2140     3.6640    -1.0820 ha         1 FPZ       0.113000
     21 H021        -3.3700    -1.6670     2.1090 ha         1 FPZ       0.113000
     22 H031        -1.1190    -1.6100     1.1380 ha         1 FPZ       0.118500
     23 H051        -2.4590     1.2380    -1.7790 ha         1 FPZ       0.118500
     24 H061        -4.7020     1.1990    -0.7810 ha         1 FPZ       0.113000
     25 H091         2.1940     1.6170    -1.9880 ha         1 FPZ       0.118500
     26 H111         2.2840     4.7180     0.9560 ha         1 FPZ       0.112000
     27 H121         0.3320     3.7000     2.0850 ha         1 FPZ       0.113000
     28 H131        -0.6750     1.6430     1.2020 ha         1 FPZ       0.118500
     29 H151         1.8010    -0.1640     1.2420 ha         1 FPZ       0.118500
     30 H161         3.0350    -2.0190     2.2700 ha         1 FPZ       0.113000
     31 H171         2.9220    -4.2880     1.2930 ha         1 FPZ       0.112000
     32 H181         1.5600    -4.6850    -0.7380 ha         1 FPZ       0.113000
     33 H191         0.3460    -2.8260    -1.7920 ha         1 FPZ       0.118500
     34 H011        -5.1750    -0.2630     1.1630 ha         1 FPZ       0.112000
@<TRIPOS>BOND
     1     1     9 ar  
     2     1    10 ar  
     3     1    20 1   
     4     2     3 ar  
     5     2     7 ar  
     6     2    34 1   
     7     3     4 ar  
     8     3    21 1   
     9     4     5 ar  
    10     4    22 1   
    11     5     6 ar  
    12     5    19 1   
    13     6     7 ar  
    14     6    23 1   
    15     7    24 1   
    16     8     9 ar  
    17     8    12 ar  
    18     8    19 1   
    19     9    25 1   
    20    10    11 ar  
    21    10    26 1   
    22    11    12 ar  
    23    11    27 1   
    24    12    28 1   
    25    13    14 ar  
    26    13    18 ar  
    27    13    19 1   
    28    14    15 ar  
    29    14    29 1   
    30    15    16 ar  
    31    15    30 1   
    32    16    17 ar  
    33    16    31 1   
    34    17    18 ar  
    35    17    32 1   
    36    18    33 1   
@<TRIPOS>SUBSTRUCTURE
     1 FPZ         1 TEMP              0 ****  ****    0 ROOT
