@<TRIPOS>MOLECULE
FQ0
   53    52     1     0     0
SMALL
No Charge or Current Charge


@<TRIPOS>ATOM
      1 C10         19.3390   -16.3440    38.7270 c3         1 FQ0      -0.055900
      2 C12         21.2140   -19.1280    39.4540 c2         1 FQ0      -0.218200
      3 C13         20.3080   -19.8580    38.7750 c2         1 FQ0      -0.105400
      4 C14         20.1270   -19.8600    37.2610 c3         1 FQ0      -0.052900
      5 C15         19.3220   -20.7750    39.4860 c3         1 FQ0      -0.036200
      6 C16         19.7920   -22.2460    39.5550 c3         1 FQ0      -0.034200
      7 C17         21.0250   -22.4240    40.4260 c2         1 FQ0      -0.215200
      8 C20         22.8270   -22.3820    38.6140 c3         1 FQ0      -0.053900
      9 C31         17.1050   -14.6420    34.8560 c3         1 FQ0       0.157100
     10 O6          18.0990   -11.9050    36.2000 oh         1 FQ0      -0.684500
     11 C2          18.4710   -12.3890    34.8940 c3         1 FQ0       0.157100
     12 C3          18.5120   -13.9490    34.7830 c3         1 FQ0       0.182300
     13 O7          16.5480   -14.6980    36.1840 oh         1 FQ0      -0.684500
     14 O5          19.4270   -14.4740    35.7830 os         1 FQ0      -0.430000
     15 C6          19.7590   -15.8670    35.6580 c3         1 FQ0       0.202800
     16 C7          20.8350   -16.1780    36.6770 c2         1 FQ0      -0.230200
     17 C8          20.6750   -16.3970    37.9960 c2         1 FQ0      -0.080400
     18 C9          21.8540   -16.7060    38.9090 c3         1 FQ0      -0.041200
     19 C11         22.2750   -18.1930    38.8970 c3         1 FQ0      -0.034200
     20 C18         22.3150   -22.4910    40.0430 c2         1 FQ0      -0.115400
     21 C19         23.4460   -22.6720    41.0400 c3         1 FQ0      -0.053900
     22 H1          19.3530   -15.5760    39.5100 hc         1 FQ0       0.042033
     23 H2          18.5040   -16.1050    38.0600 hc         1 FQ0       0.042033
     24 H3          19.1050   -17.3010    39.2070 hc         1 FQ0       0.042033
     25 H4          21.2480   -19.2040    40.5420 ha         1 FQ0       0.162000
     26 H5          20.8210   -19.1900    36.7450 hc         1 FQ0       0.038033
     27 H6          20.2730   -20.8620    36.8430 hc         1 FQ0       0.038033
     28 H7          19.1150   -19.5340    36.9910 hc         1 FQ0       0.038033
     29 H8          19.1580   -20.4240    40.5130 hc         1 FQ0       0.042200
     30 H9          18.3390   -20.7300    39.0000 hc         1 FQ0       0.042200
     31 H10         18.9750   -22.8530    39.9630 hc         1 FQ0       0.043200
     32 H11         19.9540   -22.6250    38.5400 hc         1 FQ0       0.043200
     33 H12         20.7810   -22.5070    41.4870 ha         1 FQ0       0.164000
     34 H13         23.3740   -23.2870    38.3240 hc         1 FQ0       0.037367
     35 H14         22.0280   -22.2390    37.8820 hc         1 FQ0       0.037367
     36 H15         23.5120   -21.5320    38.5100 hc         1 FQ0       0.037367
     37 H16         16.4200   -14.1040    34.1860 h1         1 FQ0       0.015950
     38 H17         17.1980   -15.6600    34.4530 h1         1 FQ0       0.015950
     39 H18         18.1560   -10.9230    36.1700 ho         1 FQ0       0.493000
     40 H19         19.4640   -12.0020    34.6290 h1         1 FQ0       0.015950
     41 H20         17.7700   -12.0050    34.1400 h1         1 FQ0       0.015950
     42 H21         18.9140   -14.1670    33.7840 h1         1 FQ0       0.023700
     43 H22         15.6510   -15.0960    36.1040 ho         1 FQ0       0.493000
     44 H23         18.8840   -16.5060    35.8310 h1         1 FQ0       0.022200
     45 H24         20.1410   -16.0830    34.6510 h1         1 FQ0       0.022200
     46 H25         21.8310   -16.2280    36.2390 ha         1 FQ0       0.170000
     47 H26         22.7210   -16.1160    38.5870 hc         1 FQ0       0.045700
     48 H27         21.6500   -16.3890    39.9400 hc         1 FQ0       0.045700
     49 H28         23.1900   -18.3000    39.4920 hc         1 FQ0       0.043700
     50 H29         22.5610   -18.4750    37.8780 hc         1 FQ0       0.043700
     51 H30         23.0750   -22.7450    42.0690 hc         1 FQ0       0.037367
     52 H31         24.0150   -23.5860    40.8300 hc         1 FQ0       0.037367
     53 H32         24.1440   -21.8270    41.0020 hc         1 FQ0       0.037367
@<TRIPOS>BOND
     1     1    17 1   
     2     1    22 1   
     3     1    23 1   
     4     1    24 1   
     5     2     3 2   
     6     2    19 1   
     7     2    25 1   
     8     3     4 1   
     9     3     5 1   
    10     4    26 1   
    11     4    27 1   
    12     4    28 1   
    13     5     6 1   
    14     5    29 1   
    15     5    30 1   
    16     6     7 1   
    17     6    31 1   
    18     6    32 1   
    19     7    20 2   
    20     7    33 1   
    21     8    20 1   
    22     8    34 1   
    23     8    35 1   
    24     8    36 1   
    25     9    12 1   
    26     9    13 1   
    27     9    37 1   
    28     9    38 1   
    29    10    11 1   
    30    10    39 1   
    31    11    12 1   
    32    11    40 1   
    33    11    41 1   
    34    12    14 1   
    35    12    42 1   
    36    13    43 1   
    37    14    15 1   
    38    15    16 1   
    39    15    44 1   
    40    15    45 1   
    41    16    17 2   
    42    16    46 1   
    43    17    18 1   
    44    18    19 1   
    45    18    47 1   
    46    18    48 1   
    47    19    49 1   
    48    19    50 1   
    49    20    21 1   
    50    21    51 1   
    51    21    52 1   
    52    21    53 1   
@<TRIPOS>SUBSTRUCTURE
     1 FQ0         1 TEMP              0 ****  ****    0 ROOT
