@<TRIPOS>MOLECULE
FQ0
   53    52     1     0     0
SMALL
bcc


@<TRIPOS>ATOM
      1 C10         18.7560   -16.3250    39.3550 c3         1 FQ0      -0.055900
      2 C12         21.0550   -18.7780    39.8360 c2         1 FQ0      -0.168200
      3 C13         20.5450   -19.7060    39.0200 c2         1 FQ0      -0.105400
      4 C14         20.8170   -19.7820    37.5470 c3         1 FQ0      -0.052900
      5 C15         19.6090   -20.7570    39.5530 c3         1 FQ0      -0.036200
      6 C16         20.0870   -22.2000    39.3260 c3         1 FQ0      -0.034200
      7 C17         21.4080   -22.4650    39.9740 c2         1 FQ0      -0.165200
      8 C20         22.6980   -23.2440    37.9590 c3         1 FQ0      -0.053900
      9 C31         17.0920   -14.4920    34.7280 c3         1 FQ0       0.133900
     10 O6          18.3720   -11.7650    35.0770 oh         1 FQ0      -0.562300
     11 C2          18.8780   -12.7320    34.1900 c3         1 FQ0       0.133900
     12 C3          18.5760   -14.1410    34.6660 c3         1 FQ0       0.159100
     13 O7          16.4680   -13.8730    35.8260 oh         1 FQ0      -0.562300
     14 O5          19.2550   -14.3450    35.8810 os         1 FQ0      -0.383600
     15 C6          19.2540   -15.6780    36.3500 c3         1 FQ0       0.179600
     16 C7          20.2850   -15.8050    37.4220 c2         1 FQ0      -0.180200
     17 C8          20.0900   -16.1060    38.7080 c2         1 FQ0      -0.080400
     18 C9          21.2830   -16.2640    39.6230 c3         1 FQ0      -0.041200
     19 C11         21.9600   -17.6390    39.4900 c3         1 FQ0      -0.034200
     20 C18         22.5370   -22.9030    39.4110 c2         1 FQ0      -0.115400
     21 C19         23.7820   -23.0980    40.2290 c3         1 FQ0      -0.053900
     22 H1          18.6040   -15.5890    40.1480 hc         1 FQ0       0.042033
     23 H2          17.9140   -16.2550    38.6700 hc         1 FQ0       0.042033
     24 H3          18.7210   -17.3060    39.8330 hc         1 FQ0       0.042033
     25 H4          20.7670   -18.8270    40.8840 ha         1 FQ0       0.112000
     26 H5          21.3800   -18.9320    37.1680 hc         1 FQ0       0.038033
     27 H6          21.3780   -20.6860    37.2950 hc         1 FQ0       0.038033
     28 H7          19.8810   -19.8330    36.9860 hc         1 FQ0       0.038033
     29 H8          19.4500   -20.5980    40.6230 hc         1 FQ0       0.042200
     30 H9          18.6310   -20.6430    39.0730 hc         1 FQ0       0.042200
     31 H10         19.3320   -22.8690    39.7530 hc         1 FQ0       0.043200
     32 H11         20.1100   -22.4230    38.2580 hc         1 FQ0       0.043200
     33 H12         21.4350   -22.2530    41.0420 ha         1 FQ0       0.114000
     34 H13         23.0020   -24.2880    37.8430 hc         1 FQ0       0.037367
     35 H14         21.7950   -23.0960    37.3700 hc         1 FQ0       0.037367
     36 H15         23.4920   -22.6420    37.5110 hc         1 FQ0       0.037367
     37 H16         16.6430   -14.1950    33.7690 h1         1 FQ0       0.015950
     38 H17         16.9910   -15.5840    34.7820 h1         1 FQ0       0.015950
     39 H18         18.6520   -10.9020    34.7610 ho         1 FQ0       0.394000
     40 H19         19.9670   -12.6410    34.0750 h1         1 FQ0       0.015950
     41 H20         18.4490   -12.6290    33.1830 h1         1 FQ0       0.015950
     42 H21         18.9910   -14.8000    33.8830 h1         1 FQ0       0.023700
     43 H22         15.5830   -14.2360    35.9040 ho         1 FQ0       0.394000
     44 H23         18.2650   -15.9720    36.7130 h1         1 FQ0       0.022200
     45 H24         19.5030   -16.3660    35.5280 h1         1 FQ0       0.022200
     46 H25         21.3100   -15.6480    37.0900 ha         1 FQ0       0.120000
     47 H26         22.0270   -15.4950    39.4000 hc         1 FQ0       0.045700
     48 H27         20.9780   -16.1090    40.6620 hc         1 FQ0       0.045700
     49 H28         22.8250   -17.6530    40.1610 hc         1 FQ0       0.043700
     50 H29         22.3570   -17.7350    38.4790 hc         1 FQ0       0.043700
     51 H30         23.6290   -22.8430    41.2770 hc         1 FQ0       0.037367
     52 H31         24.1260   -24.1340    40.1790 hc         1 FQ0       0.037367
     53 H32         24.6000   -22.4820    39.8470 hc         1 FQ0       0.037367
@<TRIPOS>BOND
     1     1    17 1   
     2     1    22 1   
     3     1    23 1   
     4     1    24 1   
     5     2     3 2   
     6     2    19 1   
     7     2    25 1   
     8     3     4 1   
     9     3     5 1   
    10     4    26 1   
    11     4    27 1   
    12     4    28 1   
    13     5     6 1   
    14     5    29 1   
    15     5    30 1   
    16     6     7 1   
    17     6    31 1   
    18     6    32 1   
    19     7    20 2   
    20     7    33 1   
    21     8    20 1   
    22     8    34 1   
    23     8    35 1   
    24     8    36 1   
    25     9    12 1   
    26     9    13 1   
    27     9    37 1   
    28     9    38 1   
    29    10    11 1   
    30    10    39 1   
    31    11    12 1   
    32    11    40 1   
    33    11    41 1   
    34    12    14 1   
    35    12    42 1   
    36    13    43 1   
    37    14    15 1   
    38    15    16 1   
    39    15    44 1   
    40    15    45 1   
    41    16    17 2   
    42    16    46 1   
    43    17    18 1   
    44    18    19 1   
    45    18    47 1   
    46    18    48 1   
    47    19    49 1   
    48    19    50 1   
    49    20    21 1   
    50    21    51 1   
    51    21    52 1   
    52    21    53 1   
@<TRIPOS>SUBSTRUCTURE
     1 FQ0         1 TEMP              0 ****  ****    0 ROOT
