@<TRIPOS>MOLECULE
FQ1
   80    83     1     0     0
SMALL
No Charge or Current Charge


@<TRIPOS>ATOM
      1 C2          -3.7120    -1.3700    -3.1130 ca         1 FQ1       0.197100
      2 C3          -4.2440    -0.0730    -3.0840 ca         1 FQ1      -0.201500
      3 C4          -4.7900     0.4490    -1.9000 ca         1 FQ1       0.022000
      4 C5          -4.8060    -0.3390    -0.7320 ca         1 FQ1      -0.343500
      5 C15         -4.8380     3.1190     3.2340 c3         1 FQ1      -0.090100
      6 C16         -2.7800     1.0430     1.0810 c3         1 FQ1       0.192800
      7 O9          -6.2160    -0.7150     1.4480 o          1 FQ1      -0.541000
      8 C19         -0.3870     0.3170     0.2830 c3         1 FQ1       0.092700
      9 C17         -1.4640     0.2800     1.4130 c3         1 FQ1       0.139300
     10 C14         -4.0190     1.9880     5.3560 c3         1 FQ1      -0.090100
     11 C7          -3.7460    -2.1640    -1.9480 ca         1 FQ1      -0.201500
     12 C6          -4.2920    -1.6490    -0.7600 ca         1 FQ1       0.022000
     13 C12         -4.1270     0.6100     3.2140 c3         1 FQ1       0.229800
     14 C01          4.8370     0.9780     1.9460 c6         1 FQ1      -0.140400
     15 C02          6.3680     1.1870     2.0150 c6         1 FQ1       0.168600
     16 C04         -2.4620    -3.0660    -4.3960 c3         1 FQ1       0.144900
     17 C06          1.1680    -1.4690    -2.2690 ca         1 FQ1      -0.162000
     18 C07          0.2840    -0.3850    -2.1020 ca         1 FQ1      -0.031300
     19 C08          0.4120     0.7420    -2.9360 ca         1 FQ1      -0.162000
     20 C09          2.2970    -0.2950    -4.0780 ca         1 FQ1      -0.194000
     21 C24          4.4610    -0.1610     0.9670 c6         1 FQ1       0.208300
     22 C27          6.8230    -1.1300     1.3150 c5         1 FQ1       0.391300
     23 C29          6.4730    -2.7870     2.9150 c5         1 FQ1       0.150600
     24 C30          5.0720    -2.1760     2.5950 c5         1 FQ1      -0.094400
     25 C31          5.3100    -1.4230     1.2440 c5         1 FQ1      -0.137700
     26 C33          2.1690    -1.4180    -3.2500 ca         1 FQ1       0.204000
     27 C34          1.4160     0.7830    -3.9170 ca         1 FQ1       0.204000
     28 F01          3.0170    -2.4590    -3.3970 f          1 FQ1      -0.172000
     29 F02          1.5340     1.8690    -4.7110 f          1 FQ1      -0.172000
     30 N11         -3.9840     0.4460     1.7380 n3         1 FQ1      -0.783500
     31 N20          0.8860    -0.2110     0.7870 ns         1 FQ1      -0.487900
     32 O01          7.0550    -0.0580     2.2640 os         1 FQ1      -0.475000
     33 O03         -3.1580    -1.8110    -4.2970 os         1 FQ1      -0.334100
     34 O10         -5.9320     1.6980     0.6110 o          1 FQ1      -0.541000
     35 O18         -1.8090    -1.0760     1.7430 oh         1 FQ1      -0.654000
     36 O22          2.3210     1.3780    -0.0480 o          1 FQ1      -0.536000
     37 O23          3.0640    -0.4910     1.0670 os         1 FQ1      -0.461100
     38 O28          7.3570    -2.3440     1.8590 os         1 FQ1      -0.436000
     39 S8          -5.4180     0.3410     0.8170 sy         1 FQ1       1.201600
     40 H1          -4.2190     0.5380    -3.9820 ha         1 FQ1       0.129500
     41 H2          -5.1800     1.4660    -1.8930 ha         1 FQ1       0.135500
     42 H3          -5.8910     2.8240     3.3260 hc         1 FQ1       0.038200
     43 H4          -4.7020     4.0690     3.7640 hc         1 FQ1       0.038200
     44 H5          -4.6150     3.3030     2.1780 hc         1 FQ1       0.038200
     45 H6          -2.6630     2.0980     1.3590 h1         1 FQ1       0.062200
     46 H7          -2.9000     1.0600    -0.0050 h1         1 FQ1       0.062200
     47 H8          -0.2320     1.3740     0.0260 h1         1 FQ1       0.093700
     48 H9          -1.0370     0.7690     2.3000 h1         1 FQ1       0.094700
     49 H10         -5.0320     1.7040     5.6660 hc         1 FQ1       0.038200
     50 H11         -3.3150     1.2600     5.7780 hc         1 FQ1       0.038200
     51 H12         -3.7890     2.9680     5.7920 hc         1 FQ1       0.038200
     52 H13         -3.3440    -3.1730    -1.9390 ha         1 FQ1       0.129500
     53 H14         -4.2970    -2.2630     0.1400 ha         1 FQ1       0.135500
     54 H15         -2.8750     2.3330     3.5930 hc         1 FQ1       0.044700
     55 H16         -3.4000    -0.0520     3.7040 h1         1 FQ1       0.061200
     56 H17         -5.1110     0.2510     3.5430 h1         1 FQ1       0.061200
     57 H18          4.4550     0.7570     2.9500 hc         1 FQ1       0.068200
     58 H19          4.3610     1.9170     1.6360 hc         1 FQ1       0.068200
     59 H20          6.7290     1.6060     1.0640 h1         1 FQ1       0.050700
     60 H21          6.6160     1.9010     2.8140 h1         1 FQ1       0.050700
     61 H22         -1.6120    -3.0950    -3.7020 h1         1 FQ1       0.048367
     62 H23         -3.1330    -3.9040    -4.1680 h1         1 FQ1       0.048367
     63 H24         -2.0760    -3.2080    -5.4130 h1         1 FQ1       0.048367
     64 H25          1.0880    -2.3460    -1.6320 ha         1 FQ1       0.135500
     65 H26         -0.2590     1.5890    -2.8230 ha         1 FQ1       0.135500
     66 H27          3.0730    -0.2590    -4.8360 ha         1 FQ1       0.151000
     67 H28          4.6730     0.1700    -0.0620 h1         1 FQ1       0.068700
     68 H29          7.2610    -0.8940     0.3360 h2         1 FQ1       0.071700
     69 H30          6.8550    -2.4220     3.8780 h1         1 FQ1       0.050200
     70 H31          6.4580    -3.8850     2.9380 h1         1 FQ1       0.050200
     71 H32          4.2980    -2.9460     2.5040 hc         1 FQ1       0.062200
     72 H33          4.7590    -1.5060     3.4020 hc         1 FQ1       0.062200
     73 H34          5.1130    -2.0940     0.4000 hc         1 FQ1       0.076700
     74 H35         -1.0400    -1.4660    -0.7910 hc         1 FQ1       0.057700
     75 H36         -1.7090     0.0150    -1.4330 hc         1 FQ1       0.057700
     76 H37          0.8780    -1.0830     1.3000 hn         1 FQ1       0.329500
     77 H38         -2.7880    -1.0170     1.8670 ho         1 FQ1       0.445000
     78 C32         -0.7930    -0.4240    -1.0260 c3         1 FQ1      -0.067100
     79 C13         -3.9050     2.0310     3.8150 c3         1 FQ1      -0.074700
     80 C21          2.1140     0.3400     0.5590 c          1 FQ1       0.641100
@<TRIPOS>BOND
     1     1     2 ar  
     2     1    11 ar  
     3     1    33 1   
     4     2     3 ar  
     5     2    40 1   
     6     3     4 ar  
     7     3    41 1   
     8     4    12 ar  
     9     4    39 1   
    10     5    42 1   
    11     5    43 1   
    12     5    44 1   
    13     5    79 1   
    14     6     9 1   
    15     6    30 1   
    16     6    45 1   
    17     6    46 1   
    18     7    39 2   
    19     8     9 1   
    20     8    31 1   
    21     8    47 1   
    22     8    78 1   
    23     9    35 1   
    24     9    48 1   
    25    10    49 1   
    26    10    50 1   
    27    10    51 1   
    28    10    79 1   
    29    11    12 ar  
    30    11    52 1   
    31    12    53 1   
    32    13    30 1   
    33    13    55 1   
    34    13    56 1   
    35    13    79 1   
    36    14    15 1   
    37    14    21 1   
    38    14    57 1   
    39    14    58 1   
    40    15    32 1   
    41    15    59 1   
    42    15    60 1   
    43    16    33 1   
    44    16    61 1   
    45    16    62 1   
    46    16    63 1   
    47    17    18 ar  
    48    17    26 ar  
    49    17    64 1   
    50    18    19 ar  
    51    18    78 1   
    52    19    27 ar  
    53    19    65 1   
    54    20    26 ar  
    55    20    27 ar  
    56    20    66 1   
    57    21    25 1   
    58    21    37 1   
    59    21    67 1   
    60    22    25 1   
    61    22    32 1   
    62    22    38 1   
    63    22    68 1   
    64    23    24 1   
    65    23    38 1   
    66    23    69 1   
    67    23    70 1   
    68    24    25 1   
    69    24    71 1   
    70    24    72 1   
    71    25    73 1   
    72    26    28 1   
    73    27    29 1   
    74    30    39 1   
    75    31    76 1   
    76    31    80 1   
    77    34    39 2   
    78    35    77 1   
    79    36    80 2   
    80    37    80 1   
    81    54    79 1   
    82    74    78 1   
    83    75    78 1   
@<TRIPOS>SUBSTRUCTURE
     1 FQ1         1 TEMP              0 ****  ****    0 ROOT
