@<TRIPOS>MOLECULE
FQ1
   80    83     1     0     0
SMALL
abcg2


@<TRIPOS>ATOM
      1 C2          -3.9730    -3.1520    -1.8660 ca         1 FQ1       0.197100
      2 C3          -3.7420    -1.9470    -2.5380 ca         1 FQ1      -0.201500
      3 C4          -4.1660    -0.7510    -1.9930 ca         1 FQ1       0.022000
      4 C5          -4.8140    -0.7440    -0.7600 ca         1 FQ1      -0.343500
      5 C15         -4.9100     3.3110     2.8460 c3         1 FQ1      -0.090100
      6 C16         -2.7230     1.4870     0.4570 c3         1 FQ1       0.192800
      7 O9          -6.4330     0.5720     0.8230 o          1 FQ1      -0.541000
      8 C19         -0.2760     0.9370     0.1560 c3         1 FQ1       0.092700
      9 C17         -1.5930     0.5270     0.8320 c3         1 FQ1       0.139300
     10 C14         -3.9540     1.9550     4.7390 c3         1 FQ1      -0.090100
     11 C7          -4.6370    -3.1380    -0.6370 ca         1 FQ1      -0.201500
     12 C6          -5.0500    -1.9350    -0.0880 ca         1 FQ1       0.022000
     13 C12         -4.1090     0.9470     2.4740 c3         1 FQ1       0.229800
     14 C01          4.6020     0.0660     2.7340 c6         1 FQ1      -0.140400
     15 C02          6.1130     0.1560     2.8760 c6         1 FQ1       0.168600
     16 C04         -3.7460    -5.5130    -1.8440 c3         1 FQ1       0.144900
     17 C06          1.9300     0.1590    -2.2320 ca         1 FQ1      -0.162000
     18 C07          1.0040     1.1710    -1.9970 ca         1 FQ1      -0.031300
     19 C08          1.3440     2.4930    -2.2670 ca         1 FQ1      -0.162000
     20 C09          3.5550     1.7980    -2.9820 ca         1 FQ1      -0.194000
     21 C24          4.2710    -0.1300     1.2650 c6         1 FQ1       0.208300
     22 C27          6.5490    -1.2180     1.0160 c5         1 FQ1       0.391300
     23 C29          6.0060    -3.4470     0.7680 c5         1 FQ1       0.150600
     24 C30          4.7160    -2.6920     1.0870 c5         1 FQ1      -0.094400
     25 C31          5.0650    -1.2710     0.6500 c5         1 FQ1      -0.137700
     26 C33          3.1800     0.4960    -2.7130 ca         1 FQ1       0.204000
     27 C34          2.6040     2.7740    -2.7520 ca         1 FQ1       0.204000
     28 F01          4.0740    -0.4800    -2.9280 f          1 FQ1      -0.172000
     29 F02          2.9290     4.0480    -3.0120 f          1 FQ1      -0.172000
     30 N11         -4.0060     1.1260     1.0330 n3         1 FQ1      -0.783500
     31 N20          0.7860     0.1140     0.6820 ns         1 FQ1      -0.487900
     32 O01          6.7390    -1.0170     2.3960 os         1 FQ1      -0.475000
     33 O03         -3.5340    -4.2590    -2.4700 os         1 FQ1      -0.334100
     34 O10         -5.2670     1.7980    -1.0320 o          1 FQ1      -0.541000
     35 O18         -1.9080    -0.8260     0.6150 oh         1 FQ1      -0.654000
     36 O22          2.3420     1.7580     0.9310 o          1 FQ1      -0.536000
     37 O23          2.8890    -0.4270     1.0640 os         1 FQ1      -0.461100
     38 O28          7.0500    -2.4680     0.7050 os         1 FQ1      -0.436000
     39 S8          -5.2440     0.7840     0.0130 sy         1 FQ1       1.201600
     40 H1          -3.2370    -1.9580    -3.4950 ha         1 FQ1       0.129500
     41 H2          -3.9930     0.1670    -2.5380 ha         1 FQ1       0.135500
     42 H3          -5.9260     2.9830     3.0810 hc         1 FQ1       0.038200
     43 H4          -4.7280     4.2430     3.3820 hc         1 FQ1       0.038200
     44 H5          -4.8710     3.5320     1.7780 hc         1 FQ1       0.038200
     45 H6          -2.4400     2.4940     0.7760 h1         1 FQ1       0.062200
     46 H7          -2.8330     1.5530    -0.6250 h1         1 FQ1       0.062200
     47 H8          -0.0700     1.9710     0.4420 h1         1 FQ1       0.093700
     48 H9          -1.4150     0.6080     1.9080 h1         1 FQ1       0.094700
     49 H10         -4.9420     1.5850     5.0230 hc         1 FQ1       0.038200
     50 H11         -3.2200     1.2010     5.0290 hc         1 FQ1       0.038200
     51 H12         -3.7550     2.8540     5.3230 hc         1 FQ1       0.038200
     52 H13         -4.8390    -4.0500    -0.0940 ha         1 FQ1       0.129500
     53 H14         -5.5570    -1.9440     0.8670 ha         1 FQ1       0.135500
     54 H15         -2.8890     2.6310     3.0210 hc         1 FQ1       0.044700
     55 H16         -3.3890     0.1910     2.8020 h1         1 FQ1       0.061200
     56 H17         -5.0960     0.5530     2.7130 h1         1 FQ1       0.061200
     57 H18          4.2200    -0.7630     3.3350 hc         1 FQ1       0.068200
     58 H19          4.1440     0.9840     3.1060 hc         1 FQ1       0.068200
     59 H20          6.4860     1.0420     2.3420 h1         1 FQ1       0.050700
     60 H21          6.3980     0.2640     3.9220 h1         1 FQ1       0.050700
     61 H22         -3.2340    -5.5760    -0.8810 h1         1 FQ1       0.048367
     62 H23         -4.8090    -5.7180    -1.6990 h1         1 FQ1       0.048367
     63 H24         -3.3310    -6.2620    -2.5140 h1         1 FQ1       0.048367
     64 H25          1.6830    -0.8770    -2.0430 ha         1 FQ1       0.135500
     65 H26          0.6360     3.2950    -2.0950 ha         1 FQ1       0.135500
     66 H27          4.5390     2.0400    -3.3610 ha         1 FQ1       0.151000
     67 H28          4.5290     0.7890     0.7300 h1         1 FQ1       0.068700
     68 H29          7.1060    -0.4580     0.4490 h2         1 FQ1       0.071700
     69 H30          6.2470    -4.2000     1.5220 h1         1 FQ1       0.050200
     70 H31          5.9490    -3.9480    -0.2010 h1         1 FQ1       0.050200
     71 H32          3.8650    -3.1000     0.5450 hc         1 FQ1       0.062200
     72 H33          4.4860    -2.7420     2.1530 hc         1 FQ1       0.062200
     73 H34          4.9880    -1.2000    -0.4400 hc         1 FQ1       0.076700
     74 H35         -0.6290    -0.1580    -1.6890 hc         1 FQ1       0.057700
     75 H36         -1.0790     1.5400    -1.7680 hc         1 FQ1       0.057700
     76 H37          0.6730    -0.8860     0.5920 hn         1 FQ1       0.329500
     77 H38         -2.1900    -0.9640    -0.2960 ho         1 FQ1       0.445000
     78 C32         -0.3280     0.8480    -1.3850 c3         1 FQ1      -0.067100
     79 C13         -3.8930     2.2500     3.2450 c3         1 FQ1      -0.074700
     80 C21          2.0340     0.5870     0.8890 c          1 FQ1       0.641100
@<TRIPOS>BOND
     1     1     2 ar  
     2     1    11 ar  
     3     1    33 1   
     4     2     3 ar  
     5     2    40 1   
     6     3     4 ar  
     7     3    41 1   
     8     4    12 ar  
     9     4    39 1   
    10     5    42 1   
    11     5    43 1   
    12     5    44 1   
    13     5    79 1   
    14     6     9 1   
    15     6    30 1   
    16     6    45 1   
    17     6    46 1   
    18     7    39 2   
    19     8     9 1   
    20     8    31 1   
    21     8    47 1   
    22     8    78 1   
    23     9    35 1   
    24     9    48 1   
    25    10    49 1   
    26    10    50 1   
    27    10    51 1   
    28    10    79 1   
    29    11    12 ar  
    30    11    52 1   
    31    12    53 1   
    32    13    30 1   
    33    13    55 1   
    34    13    56 1   
    35    13    79 1   
    36    14    15 1   
    37    14    21 1   
    38    14    57 1   
    39    14    58 1   
    40    15    32 1   
    41    15    59 1   
    42    15    60 1   
    43    16    33 1   
    44    16    61 1   
    45    16    62 1   
    46    16    63 1   
    47    17    18 ar  
    48    17    26 ar  
    49    17    64 1   
    50    18    19 ar  
    51    18    78 1   
    52    19    27 ar  
    53    19    65 1   
    54    20    26 ar  
    55    20    27 ar  
    56    20    66 1   
    57    21    25 1   
    58    21    37 1   
    59    21    67 1   
    60    22    25 1   
    61    22    32 1   
    62    22    38 1   
    63    22    68 1   
    64    23    24 1   
    65    23    38 1   
    66    23    69 1   
    67    23    70 1   
    68    24    25 1   
    69    24    71 1   
    70    24    72 1   
    71    25    73 1   
    72    26    28 1   
    73    27    29 1   
    74    30    39 1   
    75    31    76 1   
    76    31    80 1   
    77    34    39 2   
    78    35    77 1   
    79    36    80 2   
    80    37    80 1   
    81    54    79 1   
    82    74    78 1   
    83    75    78 1   
@<TRIPOS>SUBSTRUCTURE
     1 FQ1         1 TEMP              0 ****  ****    0 ROOT
