@<TRIPOS>MOLECULE
FQ3
   26    27     1     0     0
SMALL
abcg2


@<TRIPOS>ATOM
      1 C2          26.4220    14.8290   -10.9680 c          1 FQ3       0.590500
      2 C3          26.2740    14.6070   -12.4070 ca         1 FQ3      -0.241600
      3 C4          25.2400    13.7960   -12.8650 ca         1 FQ3      -0.018000
      4 C5          25.0720    13.5390   -14.2150 ca         1 FQ3      -0.227300
      5 C6          23.9510    12.6950   -14.7430 c6         1 FQ3       0.211900
      6 C8          25.0110    12.8070   -16.8510 c6         1 FQ3       0.402000
      7 C9          24.6810    13.0680   -18.3050 c3         1 FQ3      -0.111100
      8 C10         25.7500    11.4860   -16.6690 c3         1 FQ3      -0.111100
      9 C12         25.9680    14.1060   -15.1220 ca         1 FQ3       0.189100
     10 C13         26.9970    14.9430   -14.6790 ca         1 FQ3      -0.163000
     11 C14         27.1480    15.1880   -13.3330 ca         1 FQ3      -0.012000
     12 O1          27.3000    15.4850   -10.4540 o          1 FQ3      -0.523100
     13 O7          23.8150    12.8730   -16.1370 os         1 FQ3      -0.453000
     14 O11         25.8730    13.8800   -16.4390 os         1 FQ3      -0.361100
     15 H1          25.6510    14.3340   -10.3500 h4         1 FQ3      -0.016800
     16 H3          24.5480    13.3580   -12.1520 ha         1 FQ3       0.113000
     17 H4          23.0030    13.0020   -14.2990 h1         1 FQ3       0.060200
     18 H5          24.0980    11.6390   -14.4840 h1         1 FQ3       0.060200
     19 H6          24.1510    14.0130   -18.4230 hc         1 FQ3       0.057200
     20 H7          25.5920    13.1010   -18.9010 hc         1 FQ3       0.057200
     21 H8          24.0550    12.2660   -18.6940 hc         1 FQ3       0.057200
     22 H9          26.1000    11.3240   -15.6490 hc         1 FQ3       0.057200
     23 H10         25.0960    10.6560   -16.9380 hc         1 FQ3       0.057200
     24 H11         26.6200    11.4570   -17.3240 hc         1 FQ3       0.057200
     25 H12         27.6710    15.3850   -15.4010 ha         1 FQ3       0.134000
     26 H13         27.9500    15.8300   -12.9920 ha         1 FQ3       0.135000
@<TRIPOS>BOND
     1     1     2 1   
     2     1    12 2   
     3     1    15 1   
     4     2     3 ar  
     5     2    11 ar  
     6     3     4 ar  
     7     3    16 1   
     8     4     5 1   
     9     4     9 ar  
    10     5    13 1   
    11     5    17 1   
    12     5    18 1   
    13     6     7 1   
    14     6     8 1   
    15     6    13 1   
    16     6    14 1   
    17     7    19 1   
    18     7    20 1   
    19     7    21 1   
    20     8    22 1   
    21     8    23 1   
    22     8    24 1   
    23     9    10 ar  
    24     9    14 1   
    25    10    11 ar  
    26    10    25 1   
    27    11    26 1   
@<TRIPOS>SUBSTRUCTURE
     1 FQ3         1 TEMP              0 ****  ****    0 ROOT
