@<TRIPOS>MOLECULE
FQ3
   26    27     1     0     0
SMALL
No Charge or Current Charge


@<TRIPOS>ATOM
      1 C2          26.3700    14.9400   -10.8820 c          1 FQ3       0.590500
      2 C3          26.2580    14.6480   -12.3540 ca         1 FQ3      -0.241600
      3 C4          25.2210    13.8150   -12.8210 ca         1 FQ3      -0.018000
      4 C5          25.1030    13.5340   -14.1950 ca         1 FQ3      -0.227300
      5 C6          23.9760    12.6370   -14.7030 c6         1 FQ3       0.211900
      6 C8          25.0270    12.8020   -16.8940 c6         1 FQ3       0.402000
      7 C9          24.6530    13.1080   -18.3620 c3         1 FQ3      -0.111100
      8 C10         25.7210    11.4140   -16.7820 c3         1 FQ3      -0.111100
      9 C12         26.0300    14.0820   -15.1020 ca         1 FQ3       0.189100
     10 C13         27.0560    14.9180   -14.6420 ca         1 FQ3      -0.163000
     11 C14         27.1760    15.2020   -13.2720 ca         1 FQ3      -0.012000
     12 O1          27.2430    15.6550   -10.4020 o          1 FQ3      -0.523100
     13 O7          23.8100    12.8390   -16.1220 os         1 FQ3      -0.453000
     14 O11         25.9300    13.8280   -16.4500 os         1 FQ3      -0.361100
     15 H1          25.6030    14.4640   -10.2310 h4         1 FQ3      -0.016800
     16 H3          24.5070    13.3880   -12.1190 ha         1 FQ3       0.113000
     17 H4          23.0320    12.8830   -14.1960 h1         1 FQ3       0.060200
     18 H5          24.2070    11.5810   -14.4990 h1         1 FQ3       0.060200
     19 H6          24.1520    14.0790   -18.4450 hc         1 FQ3       0.057200
     20 H7          25.5440    13.1340   -19.0000 hc         1 FQ3       0.057200
     21 H8          23.9760    12.3450   -18.7630 hc         1 FQ3       0.057200
     22 H9          26.1620    11.2520   -15.7920 hc         1 FQ3       0.057200
     23 H10         25.0090    10.6020   -16.9740 hc         1 FQ3       0.057200
     24 H11         26.5310    11.3220   -17.5140 hc         1 FQ3       0.057200
     25 H12         27.7620    15.3450   -15.3500 ha         1 FQ3       0.134000
     26 H13         27.9800    15.8500   -12.9280 ha         1 FQ3       0.135000
@<TRIPOS>BOND
     1     1     2 1   
     2     1    12 2   
     3     1    15 1   
     4     2     3 ar  
     5     2    11 ar  
     6     3     4 ar  
     7     3    16 1   
     8     4     5 1   
     9     4     9 ar  
    10     5    13 1   
    11     5    17 1   
    12     5    18 1   
    13     6     7 1   
    14     6     8 1   
    15     6    13 1   
    16     6    14 1   
    17     7    19 1   
    18     7    20 1   
    19     7    21 1   
    20     8    22 1   
    21     8    23 1   
    22     8    24 1   
    23     9    10 ar  
    24     9    14 1   
    25    10    11 ar  
    26    10    25 1   
    27    11    26 1   
@<TRIPOS>SUBSTRUCTURE
     1 FQ3         1 TEMP              0 ****  ****    0 ROOT
