@<TRIPOS>MOLECULE
FQ4
   80    83     1     0     0
SMALL
abcg2


@<TRIPOS>ATOM
      1 C2           8.7130    16.8010     6.8470 ca         1 FQ4       0.194100
      2 C3           7.4560    16.4610     6.3400 ca         1 FQ4      -0.193500
      3 C4           7.3610    15.8350     5.1040 ca         1 FQ4       0.022000
      4 C5           8.5090    15.5460     4.3740 ca         1 FQ4      -0.361500
      5 O9           9.6200    14.1820     2.4580 o          1 FQ4      -0.545000
      6 C12          6.8880    16.7350     1.5900 c3         1 FQ4       0.216800
      7 C13          5.8990    16.0520     0.6430 c3         1 FQ4      -0.075700
      8 C15          6.4440    15.9350    -0.7780 c3         1 FQ4      -0.086100
      9 C16          9.3770    16.9820     1.5830 c3         1 FQ4       0.179800
     10 C17          9.7930    17.1740     0.1240 c3         1 FQ4       0.151300
     11 C19         10.4350    15.9280    -0.4890 c3         1 FQ4       0.140700
     12 C24          9.8390    14.7930    -5.1730 c6         1 FQ4       0.202300
     13 C01          9.2640    15.7320    -6.2190 c6         1 FQ4      -0.121400
     14 C02         10.3520    16.6460    -6.8110 c6         1 FQ4       0.175600
     15 C04          7.7750    17.7560     8.8300 c3         1 FQ4       0.146900
     16 C06         11.9340    13.1200    -0.3900 ca         1 FQ4      -0.074500
     17 C07         12.4650    14.4050    -0.5280 ca         1 FQ4      -0.096300
     18 C08         13.6140    14.5670    -1.3000 ca         1 FQ4      -0.074500
     19 C14          4.5850    16.8350     0.6700 c3         1 FQ4      -0.086100
     20 C27         11.8250    14.7710    -6.7760 c5         1 FQ4       0.382300
     21 C29         13.2580    14.0860    -5.1190 c5         1 FQ4       0.151600
     22 C30         11.9690    13.3270    -4.8180 c5         1 FQ4      -0.095400
     23 C31         10.9510    13.9450    -5.7980 c5         1 FQ4      -0.133700
     24 C32         11.8070    15.5920     0.1250 c3         1 FQ4      -0.042100
     25 C33         12.5250    12.0250    -1.0100 ca         1 FQ4      -0.151500
     26 C34         14.2300    13.4840    -1.9210 ca         1 FQ4      -0.151500
     27 C35         13.6650    12.2350    -1.7660 ca         1 FQ4       0.156000
     28 C6           9.7680    15.8750     4.8850 ca         1 FQ4       0.022000
     29 C7           9.8670    16.4970     6.1130 ca         1 FQ4      -0.193500
     30 F01         14.2470    11.1720    -2.3860 f          1 FQ4      -0.189000
     31 N11          8.2150    16.0860     1.7000 n3         1 FQ4      -0.746500
     32 N20         10.5390    16.0960    -1.9280 ns         1 FQ4      -0.496900
     33 O01         11.6750    16.1660    -6.5520 os         1 FQ4      -0.475000
     34 O03          8.9140    17.4150     8.0330 os         1 FQ4      -0.342100
     35 O10          7.1420    14.0820     2.7100 o          1 FQ4      -0.545000
     36 O18         10.7310    18.2480     0.0240 oh         1 FQ4      -0.666000
     37 O22          9.2950    14.2800    -2.5370 o          1 FQ4      -0.550000
     38 O23         10.3420    15.5950    -4.0760 os         1 FQ4      -0.457100
     39 O28         13.1550    14.4360    -6.5150 os         1 FQ4      -0.439000
     40 S8           8.3700    14.8400     2.7640 sy         1 FQ4       1.197600
     41 H1           6.5550    16.6740     6.8940 ha         1 FQ4       0.129000
     42 H2           6.3880    15.5630     4.7180 ha         1 FQ4       0.134500
     43 H3           7.0820    17.7450     1.2280 h1         1 FQ4       0.039200
     44 H4           6.4390    16.8410     2.5820 h1         1 FQ4       0.039200
     45 H5           5.7100    15.0490     1.0250 hc         1 FQ4       0.084700
     46 H6           7.3660    15.3540    -0.8090 hc         1 FQ4       0.036867
     47 H7           5.7160    15.4430    -1.4260 hc         1 FQ4       0.036867
     48 H8           6.6520    16.9240    -1.1980 hc         1 FQ4       0.036867
     49 H9          10.2120    16.5840     2.1510 h1         1 FQ4       0.056200
     50 H10          9.1280    17.9560     2.0130 h1         1 FQ4       0.056200
     51 H11          8.9050    17.4080    -0.4670 h1         1 FQ4       0.056700
     52 H12          9.7570    15.0940    -0.3260 h1         1 FQ4       0.101700
     53 H13          9.0650    14.1430    -4.7740 h1         1 FQ4       0.080700
     54 H14          8.4600    16.3320    -5.7900 hc         1 FQ4       0.057700
     55 H15          8.8240    15.1090    -7.0000 hc         1 FQ4       0.057700
     56 H16         10.3170    17.6350    -6.3580 h1         1 FQ4       0.046700
     57 H17         10.2070    16.7580    -7.8920 h1         1 FQ4       0.046700
     58 H18          8.1730    18.2380     9.7190 h1         1 FQ4       0.048700
     59 H19          7.1200    18.4480     8.2960 h1         1 FQ4       0.048700
     60 H20          7.2160    16.8620     9.1130 h1         1 FQ4       0.048700
     61 H21         11.0430    12.9710     0.2070 ha         1 FQ4       0.127000
     62 H22         14.0380    15.5560    -1.4220 ha         1 FQ4       0.127000
     63 H23          4.1770    16.8920     1.6820 hc         1 FQ4       0.036867
     64 H24          4.7340    17.8570     0.3080 hc         1 FQ4       0.036867
     65 H25          3.8400    16.3590     0.0300 hc         1 FQ4       0.036867
     66 H26         11.6210    14.5520    -7.8300 h2         1 FQ4       0.063700
     67 H27         14.1600    13.4910    -5.0000 h1         1 FQ4       0.057700
     68 H28         13.3430    14.9920    -4.5140 h1         1 FQ4       0.057700
     69 H29         11.6720    13.4250    -3.7770 hc         1 FQ4       0.063700
     70 H30         12.0990    12.2670    -5.0300 hc         1 FQ4       0.063700
     71 H31         10.4490    13.1590    -6.3640 hc         1 FQ4       0.065700
     72 H32         11.6690    15.3950     1.1880 hc         1 FQ4       0.065200
     73 H33         12.4590    16.4600     0.0350 hc         1 FQ4       0.065200
     74 H34         12.1140    11.0290    -0.9120 ha         1 FQ4       0.131500
     75 H35         15.1210    13.6080    -2.5220 ha         1 FQ4       0.131500
     76 H36         10.6620    15.6330     4.3290 ha         1 FQ4       0.134500
     77 H37         10.8340    16.7540     6.5270 ha         1 FQ4       0.129000
     78 H38         11.1340    16.8280    -2.2850 hn         1 FQ4       0.334500
     79 H39         10.2570    19.0790     0.1480 ho         1 FQ4       0.443000
     80 C21          9.9990    15.2390    -2.8150 c          1 FQ4       0.636100
@<TRIPOS>BOND
     1     1     2 ar  
     2     1    29 ar  
     3     1    34 1   
     4     2     3 ar  
     5     2    41 1   
     6     3     4 ar  
     7     3    42 1   
     8     4    28 ar  
     9     4    40 1   
    10     5    40 2   
    11     6     7 1   
    12     6    31 1   
    13     6    43 1   
    14     6    44 1   
    15     7     8 1   
    16     7    19 1   
    17     7    45 1   
    18     8    46 1   
    19     8    47 1   
    20     8    48 1   
    21     9    10 1   
    22     9    31 1   
    23     9    49 1   
    24     9    50 1   
    25    10    11 1   
    26    10    36 1   
    27    10    51 1   
    28    11    24 1   
    29    11    32 1   
    30    11    52 1   
    31    12    13 1   
    32    12    23 1   
    33    12    38 1   
    34    12    53 1   
    35    13    14 1   
    36    13    54 1   
    37    13    55 1   
    38    14    33 1   
    39    14    56 1   
    40    14    57 1   
    41    15    34 1   
    42    15    58 1   
    43    15    59 1   
    44    15    60 1   
    45    16    17 ar  
    46    16    25 ar  
    47    16    61 1   
    48    17    18 ar  
    49    17    24 1   
    50    18    26 ar  
    51    18    62 1   
    52    19    63 1   
    53    19    64 1   
    54    19    65 1   
    55    20    23 1   
    56    20    33 1   
    57    20    39 1   
    58    20    66 1   
    59    21    22 1   
    60    21    39 1   
    61    21    67 1   
    62    21    68 1   
    63    22    23 1   
    64    22    69 1   
    65    22    70 1   
    66    23    71 1   
    67    24    72 1   
    68    24    73 1   
    69    25    27 ar  
    70    25    74 1   
    71    26    27 ar  
    72    26    75 1   
    73    27    30 1   
    74    28    29 ar  
    75    28    76 1   
    76    29    77 1   
    77    31    40 1   
    78    32    78 1   
    79    32    80 1   
    80    35    40 2   
    81    36    79 1   
    82    37    80 2   
    83    38    80 1   
@<TRIPOS>SUBSTRUCTURE
     1 FQ4         1 TEMP              0 ****  ****    0 ROOT
