@<TRIPOS>MOLECULE
FQ4
   80    83     1     0     0
SMALL
No Charge or Current Charge


@<TRIPOS>ATOM
      1 C2          10.6280    16.4980     5.4790 ca         1 FQ4       0.194100
      2 C3           9.4530    17.2710     5.5940 ca         1 FQ4      -0.193500
      3 C4           8.2730    16.8630     4.9510 ca         1 FQ4       0.022000
      4 C5           8.2640    15.6790     4.1860 ca         1 FQ4      -0.361500
      5 O9           6.7530    13.6870     3.4070 o          1 FQ4      -0.545000
      6 C12          5.9300    15.2890     0.7870 c3         1 FQ4       0.216800
      7 C13          5.5830    13.7970     0.5180 c3         1 FQ4      -0.075700
      8 C15          6.8050    12.9850     0.0230 c3         1 FQ4      -0.086100
      9 C16          7.6380    16.9390     1.5280 c3         1 FQ4       0.179800
     10 C17          8.2450    17.2680     0.1260 c3         1 FQ4       0.151300
     11 C19          9.2610    16.1940    -0.3760 c3         1 FQ4       0.140700
     12 C24         10.1360    15.5790    -5.1850 c6         1 FQ4       0.202300
     13 C01          9.8780    16.5870    -6.3210 c6         1 FQ4      -0.121400
     14 C02         10.9600    17.6950    -6.3250 c6         1 FQ4       0.175600
     15 C04         11.9440    18.0440     6.8830 c3         1 FQ4       0.146900
     16 C06         11.0890    13.6330    -0.2120 ca         1 FQ4      -0.074500
     17 C07         11.4950    14.9620     0.0300 ca         1 FQ4      -0.096300
     18 C08         12.8400    15.3260    -0.1890 ca         1 FQ4      -0.074500
     19 C14          4.4080    13.6790    -0.4790 c3         1 FQ4      -0.086100
     20 C27         12.6090    15.8540    -6.0460 c5         1 FQ4       0.382300
     21 C29         13.3610    15.2620    -3.9510 c5         1 FQ4       0.151600
     22 C30         12.2530    14.2270    -4.2370 c5         1 FQ4      -0.095400
     23 C31         11.5140    14.8970    -5.4470 c5         1 FQ4      -0.133700
     24 C32         10.4950    15.9950     0.5470 c3         1 FQ4      -0.042100
     25 C33         12.0140    12.6840    -0.6830 ca         1 FQ4      -0.151500
     26 C34         13.7650    14.3730    -0.6510 ca         1 FQ4      -0.151500
     27 C35         13.3480    13.0580    -0.9020 ca         1 FQ4       0.156000
     28 C6           9.4330    14.9030     4.0760 ca         1 FQ4       0.022000
     29 C7          10.6090    15.3180     4.7210 ca         1 FQ4      -0.193500
     30 F01         14.2350    12.1470    -1.3570 f          1 FQ4      -0.189000
     31 N11          7.0760    15.5640     1.7000 n3         1 FQ4      -0.746500
     32 N20          9.6880    16.4950    -1.7480 ns         1 FQ4      -0.496900
     33 O01         12.2370    17.2360    -5.8160 os         1 FQ4      -0.475000
     34 O03         11.8160    16.8520     6.0870 os         1 FQ4      -0.342100
     35 O10          5.6350    15.9690     3.7810 o          1 FQ4      -0.545000
     36 O18          8.8680    18.5720     0.1490 oh         1 FQ4      -0.666000
     37 O22          9.0530    14.5440    -2.7780 o          1 FQ4      -0.550000
     38 O23         10.0750    16.2620    -3.9140 os         1 FQ4      -0.457100
     39 O28         13.7960    15.6020    -5.2770 os         1 FQ4      -0.439000
     40 S8           6.7680    15.1510     3.3360 sy         1 FQ4       1.197600
     41 H1           9.4360    18.1880     6.1750 ha         1 FQ4       0.129000
     42 H2           7.3750    17.4720     5.0450 ha         1 FQ4       0.134500
     43 H3           6.1320    15.7190    -0.2000 h1         1 FQ4       0.039200
     44 H4           5.0300    15.7990     1.1590 h1         1 FQ4       0.039200
     45 H5           5.2330    13.3450     1.4520 hc         1 FQ4       0.084700
     46 H6           7.6210    13.0150     0.7550 hc         1 FQ4       0.036867
     47 H7           6.5330    11.9340    -0.1320 hc         1 FQ4       0.036867
     48 H8           7.1800    13.3850    -0.9260 hc         1 FQ4       0.036867
     49 H9           8.4490    17.1200     2.2410 h1         1 FQ4       0.056200
     50 H10          6.8610    17.6830     1.7510 h1         1 FQ4       0.056200
     51 H11          7.4220    17.2900    -0.6000 h1         1 FQ4       0.056700
     52 H12          8.7180    15.2400    -0.3950 h1         1 FQ4       0.101700
     53 H13          9.3400    14.8190    -5.2210 h1         1 FQ4       0.080700
     54 H14          8.8820    17.0370    -6.2130 hc         1 FQ4       0.057700
     55 H15          9.8770    16.0660    -7.2870 hc         1 FQ4       0.057700
     56 H16         10.6310    18.5370    -5.6990 h1         1 FQ4       0.046700
     57 H17         11.0940    18.0740    -7.3480 h1         1 FQ4       0.046700
     58 H18         12.9670    18.1340     7.2690 h1         1 FQ4       0.048700
     59 H19         11.7270    18.9380     6.2860 h1         1 FQ4       0.048700
     60 H20         11.2590    18.0170     7.7400 h1         1 FQ4       0.048700
     61 H21         10.0580    13.3340    -0.0390 ha         1 FQ4       0.127000
     62 H22         13.1710    16.3450     0.0000 ha         1 FQ4       0.127000
     63 H23          3.5270    14.2160    -0.1060 hc         1 FQ4       0.036867
     64 H24          4.6780    14.1010    -1.4560 hc         1 FQ4       0.036867
     65 H25          4.1260    12.6290    -0.6250 hc         1 FQ4       0.036867
     66 H26         12.7830    15.6760    -7.1160 h2         1 FQ4       0.063700
     67 H27         14.1980    14.8480    -3.3730 h1         1 FQ4       0.057700
     68 H28         12.9750    16.1570    -3.4430 h1         1 FQ4       0.057700
     69 H29         11.6200    14.0330    -3.3680 hc         1 FQ4       0.063700
     70 H30         12.6950    13.2670    -4.5260 hc         1 FQ4       0.063700
     71 H31         11.2820    14.1270    -6.1920 hc         1 FQ4       0.065700
     72 H32         10.1520    15.6840     1.5380 hc         1 FQ4       0.065200
     73 H33         10.9910    16.9620     0.6890 hc         1 FQ4       0.065200
     74 H34         11.6980    11.6620    -0.8760 ha         1 FQ4       0.131500
     75 H35         14.8020    14.6540    -0.8170 ha         1 FQ4       0.131500
     76 H36          9.4370    13.9870     3.4860 ha         1 FQ4       0.134500
     77 H37         11.5130    14.7220     4.6300 ha         1 FQ4       0.129000
     78 H38         10.1080    17.3940    -1.9380 hn         1 FQ4       0.334500
     79 H39          8.1500    19.2420     0.1880 ho         1 FQ4       0.443000
     80 C21          9.5690    15.6490    -2.8110 c          1 FQ4       0.636100
@<TRIPOS>BOND
     1     1     2 ar  
     2     1    29 ar  
     3     1    34 1   
     4     2     3 ar  
     5     2    41 1   
     6     3     4 ar  
     7     3    42 1   
     8     4    28 ar  
     9     4    40 1   
    10     5    40 2   
    11     6     7 1   
    12     6    31 1   
    13     6    43 1   
    14     6    44 1   
    15     7     8 1   
    16     7    19 1   
    17     7    45 1   
    18     8    46 1   
    19     8    47 1   
    20     8    48 1   
    21     9    10 1   
    22     9    31 1   
    23     9    49 1   
    24     9    50 1   
    25    10    11 1   
    26    10    36 1   
    27    10    51 1   
    28    11    24 1   
    29    11    32 1   
    30    11    52 1   
    31    12    13 1   
    32    12    23 1   
    33    12    38 1   
    34    12    53 1   
    35    13    14 1   
    36    13    54 1   
    37    13    55 1   
    38    14    33 1   
    39    14    56 1   
    40    14    57 1   
    41    15    34 1   
    42    15    58 1   
    43    15    59 1   
    44    15    60 1   
    45    16    17 ar  
    46    16    25 ar  
    47    16    61 1   
    48    17    18 ar  
    49    17    24 1   
    50    18    26 ar  
    51    18    62 1   
    52    19    63 1   
    53    19    64 1   
    54    19    65 1   
    55    20    23 1   
    56    20    33 1   
    57    20    39 1   
    58    20    66 1   
    59    21    22 1   
    60    21    39 1   
    61    21    67 1   
    62    21    68 1   
    63    22    23 1   
    64    22    69 1   
    65    22    70 1   
    66    23    71 1   
    67    24    72 1   
    68    24    73 1   
    69    25    27 ar  
    70    25    74 1   
    71    26    27 ar  
    72    26    75 1   
    73    27    30 1   
    74    28    29 ar  
    75    28    76 1   
    76    29    77 1   
    77    31    40 1   
    78    32    78 1   
    79    32    80 1   
    80    35    40 2   
    81    36    79 1   
    82    37    80 2   
    83    38    80 1   
@<TRIPOS>SUBSTRUCTURE
     1 FQ4         1 TEMP              0 ****  ****    0 ROOT
