@<TRIPOS>MOLECULE
FQ5
   54    58     1     0     0
SMALL
abcg2


@<TRIPOS>ATOM
      1 C1           9.0430    -0.6380     0.4320 ca         1 FQ5      -0.106000
      2 N2          -3.4710     1.5630    -0.7980 nc         1 FQ5      -0.481800
      3 C3           7.0670    -1.6170     1.4050 ca         1 FQ5      -0.108000
      4 C4           6.2520    -0.7000     0.7470 ca         1 FQ5      -0.062300
      5 C6           4.7550    -0.7500     0.9040 c6         1 FQ5      -0.019400
      6 C13         -2.1700     1.7090    -0.8990 cd         1 FQ5       0.245900
      7 C14         -4.9670    -0.2990    -0.8580 ca         1 FQ5       0.477500
      8 C15         -6.3890    -1.8180    -1.8000 ca         1 FQ5       0.336900
      9 C22          4.1630     0.5680     1.4090 c6         1 FQ5      -0.070900
     10 C20         -8.2930     0.0290     0.8190 c          1 FQ5       0.573600
     11 C17         -7.2190    -0.4190    -0.0740 ca         1 FQ5      -0.167600
     12 C16         -7.4470    -1.4190    -1.0170 ca         1 FQ5      -0.099000
     13 N3          -5.1820    -1.2520    -1.7270 nb         1 FQ5      -0.671000
     14 N5          -7.8680     0.9700     1.7260 ns         1 FQ5      -0.427400
     15 C19         -6.5920     1.4260     1.8030 cc         1 FQ5       0.501800
     16 N4          -5.6390     1.0710     1.0240 nd         1 FQ5      -0.579100
     17 C18         -5.9490     0.1550     0.0540 ca         1 FQ5       0.149400
     18 N1          -3.6740     0.2430    -0.8530 na         1 FQ5       0.110300
     19 C12         -2.5160    -0.4500    -1.0060 cc         1 FQ5      -0.131000
     20 C11         -1.5010     0.4690    -1.0310 cd         1 FQ5      -0.202300
     21 C10         -0.0310     0.2310    -1.1150 c3         1 FQ5       0.006900
     22 N            2.0580     0.1270     0.2280 n3         1 FQ5      -0.723600
     23 C8           2.5460    -1.1650    -0.2200 c6         1 FQ5       0.168300
     24 C7           4.0560    -1.1470    -0.3980 c6         1 FQ5      -0.070900
     25 C21          2.6480     0.4750     1.5090 c6         1 FQ5       0.168300
     26 C5           6.8510     0.2530    -0.0760 ca         1 FQ5      -0.100000
     27 C            8.2270     0.2730    -0.2210 ca         1 FQ5       0.121000
     28 CL           8.9500     1.4730    -1.2480 cl         1 FQ5      -0.209000
     29 C2           8.4460    -1.5870     1.2490 ca         1 FQ5      -0.102000
     30 H1          10.1170    -0.6100     0.3060 ha         1 FQ5       0.129000
     31 H2           6.6170    -2.3650     2.0460 ha         1 FQ5       0.114000
     32 H3           4.5270    -1.5210     1.6500 hc         1 FQ5       0.048700
     33 H4          -1.7320     2.6970    -0.8890 h4         1 FQ5       0.040100
     34 H5          -6.5040    -2.6100    -2.5300 h4         1 FQ5       0.033100
     35 H6           4.5780     0.8200     2.3870 hc         1 FQ5       0.051200
     36 H7           4.4230     1.3820     0.7270 hc         1 FQ5       0.051200
     37 H8          -8.4200    -1.8770    -1.1220 ha         1 FQ5       0.151000
     38 H9          -8.5470     1.3280     2.3860 hn         1 FQ5       0.336500
     39 H10         -6.4070     2.1390     2.5960 h5         1 FQ5       0.055800
     40 H11         -2.5030    -1.5260    -1.0720 h4         1 FQ5       0.163000
     41 H12          0.1550    -0.7010    -1.6520 hc         1 FQ5       0.052700
     42 H13          0.4410     1.0270    -1.6960 hc         1 FQ5       0.052700
     43 H17          2.2710    -1.9630     0.4930 h1         1 FQ5       0.030700
     44 H18          2.0800    -1.4220    -1.1720 h1         1 FQ5       0.030700
     45 H19          4.3150    -0.4370    -1.1900 hc         1 FQ5       0.051200
     46 H20          4.3950    -2.1330    -0.7240 hc         1 FQ5       0.051200
     47 H21          2.3820    -0.2600     2.2910 h1         1 FQ5       0.030700
     48 H22          2.2460     1.4380     1.8310 h1         1 FQ5       0.030700
     49 H23          6.2460     0.9800    -0.6050 ha         1 FQ5       0.132000
     50 H24          9.0660    -2.3080     1.7660 ha         1 FQ5       0.117000
     51 C9           0.6100     0.1950     0.2730 c3         1 FQ5       0.169800
     52 O           -9.4380    -0.3700     0.7850 o          1 FQ5      -0.519000
     53 H14          0.3360     1.1150     0.7950 h1         1 FQ5       0.032700
     54 H15          0.1710    -0.6340     0.8550 h1         1 FQ5       0.032700
@<TRIPOS>BOND
     1     1    27 ar  
     2     1    29 ar  
     3     1    30 1   
     4     2     6 2   
     5     2    18 1   
     6     3     4 ar  
     7     3    29 ar  
     8     3    31 1   
     9     4     5 1   
    10     4    26 ar  
    11     5     9 1   
    12     5    24 1   
    13     5    32 1   
    14     6    20 1   
    15     6    33 1   
    16     7    13 ar  
    17     7    17 ar  
    18     7    18 1   
    19     8    12 ar  
    20     8    13 ar  
    21     8    34 1   
    22     9    25 1   
    23     9    35 1   
    24     9    36 1   
    25    10    11 1   
    26    10    14 1   
    27    10    52 2   
    28    11    12 ar  
    29    11    17 ar  
    30    12    37 1   
    31    14    15 1   
    32    14    38 1   
    33    15    16 2   
    34    15    39 1   
    35    16    17 1   
    36    18    19 1   
    37    19    20 2   
    38    19    40 1   
    39    20    21 1   
    40    21    41 1   
    41    21    42 1   
    42    21    51 1   
    43    22    23 1   
    44    22    25 1   
    45    22    51 1   
    46    23    24 1   
    47    23    43 1   
    48    23    44 1   
    49    24    45 1   
    50    24    46 1   
    51    25    47 1   
    52    25    48 1   
    53    26    27 ar  
    54    26    49 1   
    55    27    28 1   
    56    29    50 1   
    57    51    53 1   
    58    51    54 1   
@<TRIPOS>SUBSTRUCTURE
     1 FQ5         1 TEMP              0 ****  ****    0 ROOT
