@<TRIPOS>MOLECULE
FQ5
   54    58     1     0     0
SMALL
No Charge or Current Charge


@<TRIPOS>ATOM
      1 C1           8.9450    -0.8650     1.0030 ca         1 FQ5      -0.106000
      2 N2          -3.4590     1.7370    -1.8130 nc         1 FQ5      -0.481800
      3 C3           6.8100    -1.1640     2.1360 ca         1 FQ5      -0.108000
      4 C4           6.1330    -0.5960     1.0370 ca         1 FQ5      -0.062300
      5 C6           4.6030    -0.4540     1.0660 c6         1 FQ5      -0.019400
      6 C13         -2.1410     1.6570    -1.8210 cd         1 FQ5       0.245900
      7 C14         -5.1500     0.0610    -1.3260 ca         1 FQ5       0.477500
      8 C15         -7.2030    -0.5260    -2.2900 ca         1 FQ5       0.336900
      9 C22          4.1490     1.0240     0.9780 c6         1 FQ5      -0.070900
     10 C20         -7.6150    -0.7180     1.4750 c          1 FQ5       0.573600
     11 C17         -7.0280    -0.5200     0.1260 ca         1 FQ5      -0.167600
     12 C16         -7.7950    -0.7220    -1.0380 ca         1 FQ5      -0.099000
     13 N3          -5.9180    -0.1470    -2.4390 nb         1 FQ5      -0.671000
     14 N5          -6.7510    -0.4840     2.4850 ns         1 FQ5      -0.427400
     15 C19         -5.4480    -0.0980     2.3210 cc         1 FQ5       0.501800
     16 N4          -4.8530     0.0990     1.1430 nd         1 FQ5      -0.579100
     17 C18         -5.6770    -0.1210     0.0030 ca         1 FQ5       0.149400
     18 N1          -3.8000     0.4510    -1.4380 na         1 FQ5       0.110300
     19 C12         -2.7400    -0.4230    -1.2350 cc         1 FQ5      -0.131000
     20 C11         -1.6490     0.3690    -1.4770 cd         1 FQ5      -0.202300
     21 C10         -0.1970    -0.0320    -1.4020 c3         1 FQ5       0.006900
     22 N            1.9810     0.3420    -0.1020 n3         1 FQ5      -0.723600
     23 C8           2.3800    -1.0940    -0.0210 c6         1 FQ5       0.168300
     24 C7           3.9180    -1.2660    -0.0620 c6         1 FQ5      -0.070900
     25 C21          2.6050     1.1330     0.9960 c6         1 FQ5       0.168300
     26 C5           6.8800    -0.1630    -0.0800 ca         1 FQ5      -0.100000
     27 C            8.2780    -0.2980    -0.0940 ca         1 FQ5       0.121000
     28 Cl           9.1960     0.2460    -1.4920 cl         1 FQ5      -0.209000
     29 C2           8.2100    -1.2980     2.1200 ca         1 FQ5      -0.102000
     30 H1          10.0270    -0.9670     0.9880 ha         1 FQ5       0.129000
     31 H2           6.2530    -1.5040     3.0060 ha         1 FQ5       0.114000
     32 H3           4.2390    -0.8520     2.0240 hc         1 FQ5       0.048700
     33 H4          -1.5630     2.5360    -2.0800 h4         1 FQ5       0.040100
     34 H5          -7.7760    -0.6770    -3.2040 h4         1 FQ5       0.033100
     35 H6           4.5680     1.5950     1.8170 hc         1 FQ5       0.051200
     36 H7           4.5310     1.4890     0.0600 hc         1 FQ5       0.051200
     37 H8          -8.8360    -1.0290    -0.9820 ha         1 FQ5       0.151000
     38 H9          -7.1100    -0.6070     3.4210 hn         1 FQ5       0.336500
     39 H10         -4.9310     0.0360     3.2630 h5         1 FQ5       0.055800
     40 H11         -2.8510    -1.4610    -0.9470 h4         1 FQ5       0.163000
     41 H12         -0.1210    -1.1250    -1.3950 hc         1 FQ5       0.052700
     42 H13          0.3280     0.3150    -2.3010 hc         1 FQ5       0.052700
     43 H17          1.9920    -1.5450     0.9050 h1         1 FQ5       0.030700
     44 H18          1.9570    -1.6650    -0.8600 h1         1 FQ5       0.030700
     45 H19          4.2880    -0.9450    -1.0440 hc         1 FQ5       0.051200
     46 H20          4.1720    -2.3300     0.0360 hc         1 FQ5       0.051200
     47 H21          2.2330     0.7870     1.9720 h1         1 FQ5       0.030700
     48 H22          2.3300     2.1940     0.9050 h1         1 FQ5       0.030700
     49 H23          6.3820     0.2780    -0.9390 ha         1 FQ5       0.132000
     50 H24          8.7240    -1.7380     2.9720 ha         1 FQ5       0.117000
     51 C9           0.5090     0.5500    -0.1540 c3         1 FQ5       0.169800
     52 O           -8.7700    -1.0610     1.6760 o          1 FQ5      -0.519000
     53 H14          0.3030     1.6290    -0.1390 h1         1 FQ5       0.032700
     54 H15          0.0380     0.1250     0.7430 h1         1 FQ5       0.032700
@<TRIPOS>BOND
     1     1    27 ar  
     2     1    29 ar  
     3     1    30 1   
     4     2     6 2   
     5     2    18 1   
     6     3     4 ar  
     7     3    29 ar  
     8     3    31 1   
     9     4     5 1   
    10     4    26 ar  
    11     5     9 1   
    12     5    24 1   
    13     5    32 1   
    14     6    20 1   
    15     6    33 1   
    16     7    13 ar  
    17     7    17 ar  
    18     7    18 1   
    19     8    12 ar  
    20     8    13 ar  
    21     8    34 1   
    22     9    25 1   
    23     9    35 1   
    24     9    36 1   
    25    10    11 1   
    26    10    14 1   
    27    10    52 2   
    28    11    12 ar  
    29    11    17 ar  
    30    12    37 1   
    31    14    15 1   
    32    14    38 1   
    33    15    16 2   
    34    15    39 1   
    35    16    17 1   
    36    18    19 1   
    37    19    20 2   
    38    19    40 1   
    39    20    21 1   
    40    21    41 1   
    41    21    42 1   
    42    21    51 1   
    43    22    23 1   
    44    22    25 1   
    45    22    51 1   
    46    23    24 1   
    47    23    43 1   
    48    23    44 1   
    49    24    45 1   
    50    24    46 1   
    51    25    47 1   
    52    25    48 1   
    53    26    27 ar  
    54    26    49 1   
    55    27    28 1   
    56    29    50 1   
    57    51    53 1   
    58    51    54 1   
@<TRIPOS>SUBSTRUCTURE
     1 FQ5         1 TEMP              0 ****  ****    0 ROOT
