@<TRIPOS>MOLECULE
FQ6
   20    21     1     0     0
SMALL
abcg2


@<TRIPOS>ATOM
      1 CAA         -1.0440   -13.3400   -12.8410 ca         1 FQ6      -0.002000
      2 CAB         -0.7220   -13.3770   -14.1830 ca         1 FQ6      -0.222300
      3 CAC         -0.9620   -14.5530   -14.9040 ca         1 FQ6       0.177100
      4 CAD         -1.5380   -15.6630   -14.2900 ca         1 FQ6      -0.156000
      5 CAE         -1.8570   -15.6040   -12.9480 ca         1 FQ6      -0.030000
      6 CAF         -1.6090   -14.4470   -12.2090 ca         1 FQ6      -0.237600
      7 CAG         -0.1500   -12.1880   -14.9050 c6         1 FQ6       0.201900
      8 CAI          0.1930   -13.6090   -16.6880 c6         1 FQ6       0.370600
      9 CAK         -1.9620   -14.4110   -10.7890 c          1 FQ6       0.589500
     10 OAH         -0.2650   -12.3640   -16.3030 os         1 FQ6      -0.447000
     11 OAJ         -0.6520   -14.6410   -16.2090 os         1 FQ6      -0.357100
     12 OAL         -1.8040   -13.4560   -10.0620 o          1 FQ6      -0.524100
     13 H1          -0.8670   -12.4310   -12.2770 ha         1 FQ6       0.132000
     14 H2          -1.7240   -16.5590   -14.8670 ha         1 FQ6       0.134000
     15 H3          -2.3000   -16.4670   -12.4650 ha         1 FQ6       0.118000
     16 H4           0.8970   -12.0290   -14.6190 h1         1 FQ6       0.064700
     17 H5          -0.7020   -11.2830   -14.6490 h1         1 FQ6       0.064700
     18 H6           0.1680   -13.6680   -17.7730 h2         1 FQ6       0.067200
     19 H7           1.2140   -13.7920   -16.3240 h2         1 FQ6       0.067200
     20 H8          -2.4040   -15.3480   -10.4040 h4         1 FQ6      -0.012800
@<TRIPOS>BOND
     1     1     2 ar  
     2     1     6 ar  
     3     1    13 1   
     4     2     3 ar  
     5     2     7 1   
     6     3     4 ar  
     7     3    11 1   
     8     4     5 ar  
     9     4    14 1   
    10     5     6 ar  
    11     5    15 1   
    12     6     9 1   
    13     7    10 1   
    14     7    16 1   
    15     7    17 1   
    16     8    10 1   
    17     8    11 1   
    18     8    18 1   
    19     8    19 1   
    20     9    12 2   
    21     9    20 1   
@<TRIPOS>SUBSTRUCTURE
     1 FQ6         1 TEMP              0 ****  ****    0 ROOT
