@<TRIPOS>MOLECULE
FQ6
   20    21     1     0     0
SMALL
No Charge or Current Charge


@<TRIPOS>ATOM
      1 CAA         -1.0710   -13.3310   -12.8190 ca         1 FQ6      -0.002000
      2 CAB         -0.7260   -13.3910   -14.1830 ca         1 FQ6      -0.222300
      3 CAC         -0.9430   -14.5780   -14.9070 ca         1 FQ6       0.177100
      4 CAD         -1.5170   -15.6930   -14.2810 ca         1 FQ6      -0.156000
      5 CAE         -1.8630   -15.6360   -12.9210 ca         1 FQ6      -0.030000
      6 CAF         -1.6400   -14.4550   -12.1820 ca         1 FQ6      -0.237600
      7 CAG         -0.1240   -12.1740   -14.8860 c6         1 FQ6       0.201900
      8 CAI          0.2020   -13.5990   -16.7910 c6         1 FQ6       0.370600
      9 CAK         -2.0150   -14.4070   -10.7260 c          1 FQ6       0.589500
     10 OAH         -0.2870   -12.3330   -16.3080 os         1 FQ6      -0.447000
     11 OAJ         -0.6170   -14.6480   -16.2420 os         1 FQ6      -0.357100
     12 OAL         -1.8520   -13.4160   -10.0210 o          1 FQ6      -0.524100
     13 H1          -0.9000   -12.4120   -12.2600 ha         1 FQ6       0.132000
     14 H2          -1.6900   -16.6020   -14.8500 ha         1 FQ6       0.134000
     15 H3          -2.3050   -16.5090   -12.4430 ha         1 FQ6       0.118000
     16 H4           0.9460   -12.0880   -14.6450 h1         1 FQ6       0.064700
     17 H5          -0.6300   -11.2520   -14.5660 h1         1 FQ6       0.064700
     18 H6           0.1560   -13.6290   -17.8890 h2         1 FQ6       0.067200
     19 H7           1.2490   -13.7390   -16.4820 h2         1 FQ6       0.067200
     20 H8          -2.4600   -15.3370   -10.3070 h4         1 FQ6      -0.012800
@<TRIPOS>BOND
     1     1     2 ar  
     2     1     6 ar  
     3     1    13 1   
     4     2     3 ar  
     5     2     7 1   
     6     3     4 ar  
     7     3    11 1   
     8     4     5 ar  
     9     4    14 1   
    10     5     6 ar  
    11     5    15 1   
    12     6     9 1   
    13     7    10 1   
    14     7    16 1   
    15     7    17 1   
    16     8    10 1   
    17     8    11 1   
    18     8    18 1   
    19     8    19 1   
    20     9    12 2   
    21     9    20 1   
@<TRIPOS>SUBSTRUCTURE
     1 FQ6         1 TEMP              0 ****  ****    0 ROOT
