@<TRIPOS>MOLECULE
FQ7
   26    27     1     0     0
SMALL
No Charge or Current Charge


@<TRIPOS>ATOM
      1 C4           4.1340     0.1350    -2.0490 ca         1 FQ7      -0.123000
      2 C5           4.6850     0.3080    -0.7720 ca         1 FQ7      -0.152000
      3 C6           3.8900     0.1040     0.3670 ca         1 FQ7      -0.077000
      4 O2           1.6890     0.3490     2.3280 o          1 FQ7      -0.705500
      5 O3           1.3440    -1.6780     1.6910 o          1 FQ7      -0.705500
      6 C1           2.5330    -0.2680     0.2410 ca         1 FQ7      -0.142600
      7 C3           2.7840    -0.2270    -2.1820 ca         1 FQ7      -0.177000
      8 C2           1.9700    -0.4130    -1.0500 ca         1 FQ7       0.297000
      9 C10         -0.5670    -0.3370    -0.6990 ca         1 FQ7       0.401000
     10 C12         -1.7160    -1.1200    -0.8750 ca         1 FQ7      -0.170500
     11 C11         -2.9350    -0.7180    -0.3120 ca         1 FQ7       0.176000
     12 Cl3         -4.3690    -1.7120    -0.5250 cl         1 FQ7      -0.235000
     13 C7          -3.0150     0.4760     0.4190 ca         1 FQ7      -0.176000
     14 C8          -1.8700     1.2680     0.5780 ca         1 FQ7       0.176000
     15 Cl5         -1.9680     2.7760     1.4770 cl         1 FQ7      -0.235000
     16 C9          -0.6500     0.8670     0.0170 ca         1 FQ7      -0.170500
     17 H1           4.7490     0.2850    -2.9340 ha         1 FQ7       0.087000
     18 H2           5.7290     0.5900    -0.6630 ha         1 FQ7       0.091000
     19 H3           4.3300     0.2190     1.3550 ha         1 FQ7       0.126000
     20 H4           0.4970    -1.3280    -2.1090 hn         1 FQ7       0.477000
     21 H6           2.3640    -0.3470    -3.1780 ha         1 FQ7       0.087000
     22 H7          -1.6630    -2.0460    -1.4380 ha         1 FQ7       0.138000
     23 H8          -3.9600     0.7880     0.8530 ha         1 FQ7       0.127000
     24 H9           0.2250     1.4980     0.1310 ha         1 FQ7       0.138000
     25 N2           0.6320    -0.7450    -1.2840 nu         1 FQ7      -0.963000
     26 C1A          1.7500    -0.5410     1.4920 c          1 FQ7       0.712600
@<TRIPOS>BOND
     1     1     2 ar  
     2     1     7 ar  
     3     1    17 1   
     4     2     3 ar  
     5     2    18 1   
     6     3     6 ar  
     7     3    19 1   
     8     4    26 1   
     9     5    26 1   
    10     6     8 ar  
    11     6    26 1   
    12     7     8 ar  
    13     7    21 1   
    14     8    25 1   
    15     9    10 ar  
    16     9    16 ar  
    17     9    25 1   
    18    10    11 ar  
    19    10    22 1   
    20    11    12 1   
    21    11    13 ar  
    22    13    14 ar  
    23    13    23 1   
    24    14    15 1   
    25    14    16 ar  
    26    16    24 1   
    27    20    25 1   
@<TRIPOS>SUBSTRUCTURE
     1 FQ7         1 TEMP              0 ****  ****    0 ROOT
