@<TRIPOS>MOLECULE
FQ7
   26    27     1     0     0
SMALL
abcg2


@<TRIPOS>ATOM
      1 C4           4.0460     0.1770    -2.0400 ca         1 FQ7      -0.123000
      2 C5           4.5610     0.4570    -0.7810 ca         1 FQ7      -0.152000
      3 C6           3.7660     0.2590     0.3370 ca         1 FQ7      -0.077000
      4 O2           1.8990     0.2030     2.4870 o          1 FQ7      -0.705500
      5 O3           1.1180    -1.6670     1.5550 o          1 FQ7      -0.705500
      6 C1           2.4690    -0.2450     0.2450 ca         1 FQ7      -0.142600
      7 C3           2.7400    -0.2660    -2.1620 ca         1 FQ7      -0.177000
      8 C2           1.9460    -0.4830    -1.0340 ca         1 FQ7       0.297000
      9 C10         -0.5040    -0.4400    -0.6820 ca         1 FQ7       0.401000
     10 C12         -1.7070    -1.1270    -0.8960 ca         1 FQ7      -0.170500
     11 C11         -2.8810    -0.6260    -0.3710 ca         1 FQ7       0.176000
     12 CL3         -4.3550    -1.4980    -0.6460 cl         1 FQ7      -0.235000
     13 C7          -2.9300     0.5390     0.3790 ca         1 FQ7      -0.176000
     14 C8          -1.7280     1.2030     0.5660 ca         1 FQ7       0.176000
     15 CL5         -1.7330     2.6790     1.4760 cl         1 FQ7      -0.235000
     16 C9          -0.5290     0.7530     0.0500 ca         1 FQ7      -0.170500
     17 H1           4.6480     0.3250    -2.9270 ha         1 FQ7       0.087000
     18 H2           5.5730     0.8260    -0.6710 ha         1 FQ7       0.091000
     19 H3           4.1680     0.4720     1.3190 ha         1 FQ7       0.126000
     20 H4           0.5120    -1.5700    -2.0160 hn         1 FQ7       0.477000
     21 H6           2.3210    -0.4450    -3.1450 ha         1 FQ7       0.087000
     22 H7          -1.7120    -2.0460    -1.4670 ha         1 FQ7       0.138000
     23 H8          -3.8560     0.9110     0.7920 ha         1 FQ7       0.127000
     24 H9           0.3720     1.3270     0.2090 ha         1 FQ7       0.138000
     25 N2           0.6400    -0.9390    -1.2420 nu         1 FQ7      -0.963000
     26 C1A          1.7470    -0.5950     1.5440 c          1 FQ7       0.712600
@<TRIPOS>BOND
     1     1     2 ar  
     2     1     7 ar  
     3     1    17 1   
     4     2     3 ar  
     5     2    18 1   
     6     3     6 ar  
     7     3    19 1   
     8     4    26 1   
     9     5    26 1   
    10     6     8 ar  
    11     6    26 1   
    12     7     8 ar  
    13     7    21 1   
    14     8    25 1   
    15     9    10 ar  
    16     9    16 ar  
    17     9    25 1   
    18    10    11 ar  
    19    10    22 1   
    20    11    12 1   
    21    11    13 ar  
    22    13    14 ar  
    23    13    23 1   
    24    14    15 1   
    25    14    16 ar  
    26    16    24 1   
    27    20    25 1   
@<TRIPOS>SUBSTRUCTURE
     1 FQ7         1 TEMP              0 ****  ****    0 ROOT
