@<TRIPOS>MOLECULE
FQ9
   23    24     1     0     0
SMALL
abcg2


@<TRIPOS>ATOM
      1 O1          -2.7750   -14.9990   -10.2900 o          1 FQ9      -0.523100
      2 C2          -2.3260   -14.1510   -11.0290 c          1 FQ9       0.589500
      3 C3          -1.8720   -14.3890   -12.4010 ca         1 FQ9      -0.239600
      4 C4          -1.3740   -13.3210   -13.1410 ca         1 FQ9      -0.018000
      5 C5          -0.9260   -13.4950   -14.4390 ca         1 FQ9      -0.227300
      6 C6          -0.4200   -12.3600   -15.2830 c6         1 FQ9       0.207900
      7 O7          -0.4060   -12.7390   -16.6440 os         1 FQ9      -0.451000
      8 C8           0.2330   -13.9560   -16.8310 c6         1 FQ9       0.386300
      9 C9           0.3660   -14.2450   -18.3010 c3         1 FQ9      -0.088100
     10 O10         -0.5330   -15.0080   -16.2440 os         1 FQ9      -0.361100
     11 C11         -0.9740   -14.7740   -14.9980 ca         1 FQ9       0.185100
     12 C12         -1.4900   -15.8520   -14.2740 ca         1 FQ9      -0.160000
     13 C13         -1.9350   -15.6580   -12.9850 ca         1 FQ9      -0.012000
     14 H021        -2.2270   -13.1030   -10.6910 h4         1 FQ9      -0.015800
     15 H041        -1.3420   -12.3310   -12.6970 ha         1 FQ9       0.113000
     16 H061         0.5800   -12.0480   -14.9570 h1         1 FQ9       0.061700
     17 H062        -1.0780   -11.4940   -15.1990 h1         1 FQ9       0.061700
     18 H081         1.2170   -13.9500   -16.3390 h2         1 FQ9       0.040700
     19 H092         0.8310   -15.2180   -18.4550 hc         1 FQ9       0.059700
     20 H091        -0.6070   -14.2400   -18.7920 hc         1 FQ9       0.059700
     21 H093         0.9990   -13.4930   -18.7690 hc         1 FQ9       0.059700
     22 H121        -1.5300   -16.8310   -14.7330 ha         1 FQ9       0.135000
     23 H131        -2.3300   -16.4950   -12.4230 ha         1 FQ9       0.136000
@<TRIPOS>BOND
     1     1     2 2   
     2     2     3 1   
     3     2    14 1   
     4     3     4 ar  
     5     3    13 ar  
     6     4     5 ar  
     7     4    15 1   
     8     5     6 1   
     9     5    11 ar  
    10     6     7 1   
    11     6    16 1   
    12     6    17 1   
    13     7     8 1   
    14     8     9 1   
    15     8    10 1   
    16     8    18 1   
    17     9    19 1   
    18     9    20 1   
    19     9    21 1   
    20    10    11 1   
    21    11    12 ar  
    22    12    13 ar  
    23    12    22 1   
    24    13    23 1   
@<TRIPOS>SUBSTRUCTURE
     1 FQ9         1 TEMP              0 ****  ****    0 ROOT
