@<TRIPOS>MOLECULE
FQ9
   23    24     1     0     0
SMALL
No Charge or Current Charge


@<TRIPOS>ATOM
      1 O1          -2.9010   -15.0180   -10.2760 o          1 FQ9      -0.523100
      2 C2          -2.4380   -14.1310   -10.9860 c          1 FQ9       0.589500
      3 C3          -1.9120   -14.3740   -12.3740 ca         1 FQ9      -0.239600
      4 C4          -1.3980   -13.2950   -13.1230 ca         1 FQ9      -0.018000
      5 C5          -0.9040   -13.5080   -14.4230 ca         1 FQ9      -0.227300
      6 C6          -0.3590   -12.3420   -15.2490 c6         1 FQ9       0.207900
      7 O7          -0.3500   -12.7220   -16.6380 os         1 FQ9      -0.451000
      8 C8           0.3130   -13.9750   -16.8660 c6         1 FQ9       0.386300
      9 C9           0.3190   -14.2380   -18.3860 c3         1 FQ9      -0.088100
     10 O10         -0.4440   -15.0260   -16.2440 os         1 FQ9      -0.361100
     11 C11         -0.9160   -14.8050   -14.9720 ca         1 FQ9       0.185100
     12 C12         -1.4360   -15.8780   -14.2360 ca         1 FQ9      -0.160000
     13 C13         -1.9310   -15.6680   -12.9380 ca         1 FQ9      -0.012000
     14 H021        -2.3870   -13.0800   -10.6230 h4         1 FQ9      -0.015800
     15 H041        -1.3860   -12.2930   -12.6980 ha         1 FQ9       0.113000
     16 H061         0.6650   -12.0980   -14.9290 h1         1 FQ9       0.061700
     17 H062        -0.9890   -11.4500   -15.1230 h1         1 FQ9       0.061700
     18 H081         1.3400   -13.9480   -16.4710 h2         1 FQ9       0.040700
     19 H092         0.8010   -15.1960   -18.6120 hc         1 FQ9       0.059700
     20 H091        -0.7000   -14.2660   -18.7870 hc         1 FQ9       0.059700
     21 H093         0.8720   -13.4530   -18.9140 hc         1 FQ9       0.059700
     22 H121        -1.4510   -16.8740   -14.6710 ha         1 FQ9       0.135000
     23 H131        -2.3280   -16.5120   -12.3750 ha         1 FQ9       0.136000
@<TRIPOS>BOND
     1     1     2 2   
     2     2     3 1   
     3     2    14 1   
     4     3     4 ar  
     5     3    13 ar  
     6     4     5 ar  
     7     4    15 1   
     8     5     6 1   
     9     5    11 ar  
    10     6     7 1   
    11     6    16 1   
    12     6    17 1   
    13     7     8 1   
    14     8     9 1   
    15     8    10 1   
    16     8    18 1   
    17     9    19 1   
    18     9    20 1   
    19     9    21 1   
    20    10    11 1   
    21    11    12 ar  
    22    12    13 ar  
    23    12    22 1   
    24    13    23 1   
@<TRIPOS>SUBSTRUCTURE
     1 FQ9         1 TEMP              0 ****  ****    0 ROOT
