@<TRIPOS>MOLECULE
FQA
   36    36     1     0     0
SMALL
bcc


@<TRIPOS>ATOM
      1 N           -4.8060     1.7150    -0.2670 n8         1 FQA      -0.880800
      2 CA          -4.5700     0.2830    -0.3580 c3         1 FQA       0.021500
      3 C           -5.6640    -0.4940     0.4060 c          1 FQA       0.933600
      4 O           -6.2430     0.1020     1.3370 o          1 FQA      -0.838300
      5 CB          -3.1980    -0.1800     0.1610 c3         1 FQA      -0.099400
      6 CG          -2.0140     0.4260    -0.5830 c3         1 FQA      -0.077400
      7 CD          -0.6700    -0.0640    -0.0590 c3         1 FQA      -0.080400
      8 CE           0.5040     0.5390    -0.8130 c3         1 FQA       0.153800
      9 NZ           1.7730     0.1150    -0.2510 n7         1 FQA      -0.802200
     10 CH           2.9100     0.6130    -1.0060 c3         1 FQA       0.203100
     11 C1           4.2000     0.1960    -0.3550 ca         1 FQA      -0.076300
     12 C2           4.8780    -0.9430    -0.7810 ca         1 FQA      -0.114500
     13 C3           6.0480    -1.3520    -0.1520 ca         1 FQA      -0.134500
     14 C4           6.5560    -0.6220     0.9130 ca         1 FQA      -0.132000
     15 C5           5.8870     0.5170     1.3470 ca         1 FQA      -0.134500
     16 C6           4.7150     0.9160     0.7210 ca         1 FQA      -0.114500
     17 O1          -5.8460    -1.6780     0.0580 o          1 FQA      -0.838300
     18 H1          -4.9730     1.9480     0.7040 hn         1 FQA       0.320300
     19 H2          -3.9830     2.2300    -0.5540 hn         1 FQA       0.320300
     20 H4          -4.6310    -0.0040    -1.4150 h1         1 FQA       0.041700
     21 H5          -3.1190     0.0620     1.2280 hc         1 FQA       0.043700
     22 H6          -3.1420    -1.2700     0.0850 hc         1 FQA       0.043700
     23 H7          -2.1000     0.1950    -1.6510 hc         1 FQA       0.025700
     24 H8          -2.0380     1.5190    -0.5050 hc         1 FQA       0.025700
     25 H9          -0.5780     0.1800     1.0040 hc         1 FQA       0.043200
     26 H10         -0.6260    -1.1570    -0.1300 hc         1 FQA       0.043200
     27 H11          0.4110     0.2920    -1.8840 h1         1 FQA       0.024200
     28 H12          0.4530     1.6310    -0.7500 h1         1 FQA       0.024200
     29 H13          1.8080    -0.8990    -0.2460 hn         1 FQA       0.352800
     30 H15          2.9010     0.2830    -2.0560 h1         1 FQA       0.031700
     31 H16          2.8470     1.7050    -1.0260 h1         1 FQA       0.031700
     32 H17          4.4890    -1.5150    -1.6160 ha         1 FQA       0.131000
     33 H18          6.5640    -2.2390    -0.4970 ha         1 FQA       0.125000
     34 H19          7.4710    -0.9340     1.4010 ha         1 FQA       0.123000
     35 H20          6.2810     1.0940     2.1750 ha         1 FQA       0.125000
     36 H21          4.1970     1.8050     1.0620 ha         1 FQA       0.131000
@<TRIPOS>BOND
     1     1     2 1   
     2     1    18 1   
     3     1    19 1   
     4     2     3 1   
     5     2     5 1   
     6     2    20 1   
     7     3     4 1   
     8     3    17 1   
     9     5     6 1   
    10     5    21 1   
    11     5    22 1   
    12     6     7 1   
    13     6    23 1   
    14     6    24 1   
    15     7     8 1   
    16     7    25 1   
    17     7    26 1   
    18     8     9 1   
    19     8    27 1   
    20     8    28 1   
    21     9    10 1   
    22     9    29 1   
    23    10    11 1   
    24    10    30 1   
    25    10    31 1   
    26    11    12 ar  
    27    11    16 ar  
    28    12    13 ar  
    29    12    32 1   
    30    13    14 ar  
    31    13    33 1   
    32    14    15 ar  
    33    14    34 1   
    34    15    16 ar  
    35    15    35 1   
    36    16    36 1   
@<TRIPOS>SUBSTRUCTURE
     1 FQA         1 TEMP              0 ****  ****    0 ROOT
