@<TRIPOS>MOLECULE
FQA
   36    36     1     0     0
SMALL
No Charge or Current Charge


@<TRIPOS>ATOM
      1 N           -4.8820     1.6880    -0.3510 n8         1 FQA      -0.880800
      2 CA          -4.6430     0.1960    -0.3220 c3         1 FQA       0.021500
      3 C           -5.7520    -0.7030     0.3880 c          1 FQA       0.933600
      4 O           -6.0250    -0.4920     1.5680 o          1 FQA      -0.838300
      5 CB          -3.2320    -0.1030     0.2560 c3         1 FQA      -0.099400
      6 CG          -2.0590     0.4510    -0.5900 c3         1 FQA      -0.077400
      7 CD          -0.6730     0.0730    -0.0210 c3         1 FQA      -0.080400
      8 CE           0.4940     0.6240    -0.8660 c3         1 FQA       0.153800
      9 NZ           1.7820     0.2300    -0.2740 n7         1 FQA      -0.802200
     10 CH           2.9740     0.7040    -0.9990 c3         1 FQA       0.203100
     11 C1           4.2470     0.2050    -0.3260 ca         1 FQA      -0.076300
     12 C2           4.8760    -0.9740    -0.7760 ca         1 FQA      -0.114500
     13 C3           6.0530    -1.4310    -0.1580 ca         1 FQA      -0.134500
     14 C4           6.6110    -0.7120     0.9130 ca         1 FQA      -0.132000
     15 C5           5.9890     0.4630     1.3670 ca         1 FQA      -0.134500
     16 C6           4.8110     0.9200     0.7490 ca         1 FQA      -0.114500
     17 O1          -6.3580    -1.5330    -0.2840 o          1 FQA      -0.838300
     18 H1          -4.9670     2.0280     0.6130 hn         1 FQA       0.320300
     19 H2          -4.0450     2.1520    -0.7160 hn         1 FQA       0.320300
     20 H4          -4.6280    -0.1320    -1.3700 h1         1 FQA       0.041700
     21 H5          -3.1650     0.2880     1.2790 hc         1 FQA       0.043700
     22 H6          -3.1160    -1.1920     0.3320 hc         1 FQA       0.043700
     23 H7          -2.1410     0.0680    -1.6150 hc         1 FQA       0.025700
     24 H8          -2.1280     1.5440    -0.6490 hc         1 FQA       0.025700
     25 H9          -0.5880     0.4550     1.0030 hc         1 FQA       0.043200
     26 H10         -0.5930    -1.0200     0.0340 hc         1 FQA       0.043200
     27 H11          0.4100     0.2350    -1.8900 h1         1 FQA       0.024200
     28 H12          0.4160     1.7190    -0.9140 h1         1 FQA       0.024200
     29 H13          1.8220    -0.7930    -0.2450 hn         1 FQA       0.352800
     30 H15          2.9550     0.3490    -2.0380 h1         1 FQA       0.031700
     31 H16          2.9910     1.8020    -1.0290 h1         1 FQA       0.031700
     32 H17          4.4500    -1.5370    -1.6050 ha         1 FQA       0.131000
     33 H18          6.5340    -2.3420    -0.5100 ha         1 FQA       0.125000
     34 H19          7.5220    -1.0660     1.3910 ha         1 FQA       0.123000
     35 H20          6.4180     1.0200     2.1980 ha         1 FQA       0.125000
     36 H21          4.3320     1.8290     1.1070 ha         1 FQA       0.131000
@<TRIPOS>BOND
     1     1     2 1   
     2     1    18 1   
     3     1    19 1   
     4     2     3 1   
     5     2     5 1   
     6     2    20 1   
     7     3     4 1   
     8     3    17 1   
     9     5     6 1   
    10     5    21 1   
    11     5    22 1   
    12     6     7 1   
    13     6    23 1   
    14     6    24 1   
    15     7     8 1   
    16     7    25 1   
    17     7    26 1   
    18     8     9 1   
    19     8    27 1   
    20     8    28 1   
    21     9    10 1   
    22     9    29 1   
    23    10    11 1   
    24    10    30 1   
    25    10    31 1   
    26    11    12 ar  
    27    11    16 ar  
    28    12    13 ar  
    29    12    32 1   
    30    13    14 ar  
    31    13    33 1   
    32    14    15 ar  
    33    14    34 1   
    34    15    16 ar  
    35    15    35 1   
    36    16    36 1   
@<TRIPOS>SUBSTRUCTURE
     1 FQA         1 TEMP              0 ****  ****    0 ROOT
