@<TRIPOS>MOLECULE
FQB
   68    72     1     0     0
SMALL
No Charge or Current Charge


@<TRIPOS>ATOM
      1 C1          12.2510     0.6770    -0.8360 c3         1 FQB       0.151600
      2 C2           9.8350     0.3710    -1.3520 c3         1 FQB       0.167800
      3 C3           9.4330    -0.2940    -0.0150 c3         1 FQB      -0.032100
      4 C4           7.9440    -0.1420     0.2700 ca         1 FQB      -0.082300
      5 C5           7.0440    -1.1700    -0.0660 ca         1 FQB      -0.107500
      6 C6           5.6710    -1.0250     0.1920 ca         1 FQB      -0.105500
      7 C7           5.1760     0.1520     0.7910 ca         1 FQB      -0.073300
      8 C8           6.0790     1.1800     1.1250 ca         1 FQB      -0.105500
      9 C9           7.4530     1.0350     0.8660 ca         1 FQB      -0.107500
     10 C10          3.6760     0.3230     1.0780 c6         1 FQB      -0.016400
     11 C11          2.8230     0.2890    -0.2150 c6         1 FQB      -0.069900
     12 C14         -1.5320    -0.8030     0.1090 c3         1 FQB       0.007900
     13 C15         -2.9890    -0.9010     0.4790 cc         1 FQB      -0.202300
     14 C18         -6.3250     0.0710     0.7920 ca         1 FQB       0.476500
     15 C19         -7.8870     1.4770     1.8270 ca         1 FQB       0.335900
     16 C20         -8.7190     1.4670     0.7020 ca         1 FQB      -0.098000
     17 C21         -8.3360     0.7240    -0.4320 ca         1 FQB      -0.168600
     18 C22         -7.1190     0.0050    -0.4080 ca         1 FQB       0.150400
     19 C24         -9.1880     0.6860    -1.6470 c          1 FQB       0.573600
     20 C25          1.6280    -0.5510     2.3270 c6         1 FQB       0.167300
     21 C26          3.1420    -0.7430     2.0680 c6         1 FQB      -0.069900
     22 O          -10.2520     1.2740    -1.7570 o          1 FQB      -0.519000
     23 N4          -6.7210     0.8010     1.8790 nb         1 FQB      -0.670000
     24 N6          -8.6800    -0.0690    -2.6440 ns         1 FQB      -0.427400
     25 C23         -7.4940    -0.7500    -2.5790 cc         1 FQB       0.501800
     26 N5          -6.6780    -0.7620    -1.5240 nd         1 FQB      -0.579100
     27 N2          -5.1140    -0.6470     0.8050 na         1 FQB       0.111300
     28 C16         -4.0000    -0.0100     0.2550 cd         1 FQB      -0.132000
     29 N3          -4.8600    -1.8770     1.3990 nd         1 FQB      -0.482800
     30 C17         -3.5680    -1.9950     1.1630 cc         1 FQB       0.246900
     31 N1           0.8390    -0.5900     1.0640 n3         1 FQB      -0.721600
     32 C12          1.3160     0.4480     0.1020 c6         1 FQB       0.167300
     33 N           11.2410     0.1360    -1.7780 n3         1 FQB      -0.716600
     34 C           11.4830     0.5930    -3.1640 c3         1 FQB       0.151600
     35 H1          12.1650     0.2080     0.1520 h1         1 FQB       0.029367
     36 H2          13.2670     0.4810    -1.2050 h1         1 FQB       0.029367
     37 H3          12.1340     1.7620    -0.7170 h1         1 FQB       0.029367
     38 H4           9.1580    -0.0190    -2.1240 h1         1 FQB       0.033200
     39 H5           9.6420     1.4500    -1.2770 h1         1 FQB       0.033200
     40 H6           9.7060    -1.3560    -0.0500 hc         1 FQB       0.053700
     41 H7          10.0080     0.1470     0.8060 hc         1 FQB       0.053700
     42 H8           7.4080    -2.0840    -0.5310 ha         1 FQB       0.111000
     43 H9           4.9930    -1.8320    -0.0760 ha         1 FQB       0.111500
     44 H10          5.7190     2.0970     1.5860 ha         1 FQB       0.111500
     45 H11          8.1360     1.8390     1.1280 ha         1 FQB       0.111000
     46 H12          3.5240     1.3070     1.5440 hc         1 FQB       0.046700
     47 H13          3.1420     1.0900    -0.8950 hc         1 FQB       0.049450
     48 H14          2.9780    -0.6570    -0.7510 hc         1 FQB       0.049450
     49 H15         -1.2130    -1.7380    -0.3680 hc         1 FQB       0.051700
     50 H16         -1.4040    -0.0090    -0.6350 hc         1 FQB       0.051700
     51 H17         -8.1620     2.0440     2.7160 h4         1 FQB       0.033100
     52 H18         -9.6480     2.0320     0.7210 ha         1 FQB       0.151000
     53 H19          1.2890    -1.3430     3.0110 h1         1 FQB       0.029700
     54 H20          1.4710     0.4090     2.8420 h1         1 FQB       0.029700
     55 H21          3.3140    -1.7530     1.6740 hc         1 FQB       0.049450
     56 H22          3.6890    -0.6790     3.0180 hc         1 FQB       0.049450
     57 H23         -9.2280    -0.1220    -3.4900 hn         1 FQB       0.336500
     58 H24         -7.2750    -1.2920    -3.4900 h5         1 FQB       0.055800
     59 H25         -4.0230     0.9630    -0.2240 h4         1 FQB       0.163000
     60 H26         -3.0610    -2.8870     1.5060 h4         1 FQB       0.039100
     61 H27         -0.8870     0.4540     1.7470 h1         1 FQB       0.033700
     62 H28         -0.8750    -1.2740     2.0970 h1         1 FQB       0.033700
     63 H30          1.1390     1.4540     0.5120 h1         1 FQB       0.029700
     64 H31          0.7650     0.3840    -0.8470 h1         1 FQB       0.029700
     65 H33         11.3610     1.6820    -3.2450 h1         1 FQB       0.029367
     66 H34         12.5010     0.3360    -3.4870 h1         1 FQB       0.029367
     67 H35         10.7790     0.1160    -3.8600 h1         1 FQB       0.029367
     68 C13         -0.6230    -0.5280     1.3310 c3         1 FQB       0.168800
@<TRIPOS>BOND
     1     1    33 1   
     2     1    35 1   
     3     1    36 1   
     4     1    37 1   
     5     2     3 1   
     6     2    33 1   
     7     2    38 1   
     8     2    39 1   
     9     3     4 1   
    10     3    40 1   
    11     3    41 1   
    12     4     5 ar  
    13     4     9 ar  
    14     5     6 ar  
    15     5    42 1   
    16     6     7 ar  
    17     6    43 1   
    18     7     8 ar  
    19     7    10 1   
    20     8     9 ar  
    21     8    44 1   
    22     9    45 1   
    23    10    11 1   
    24    10    21 1   
    25    10    46 1   
    26    11    32 1   
    27    11    47 1   
    28    11    48 1   
    29    12    13 1   
    30    12    49 1   
    31    12    50 1   
    32    12    68 1   
    33    13    28 2   
    34    13    30 1   
    35    14    18 ar  
    36    14    23 ar  
    37    14    27 1   
    38    15    16 ar  
    39    15    23 ar  
    40    15    51 1   
    41    16    17 ar  
    42    16    52 1   
    43    17    18 ar  
    44    17    19 1   
    45    18    26 1   
    46    19    22 2   
    47    19    24 1   
    48    20    21 1   
    49    20    31 1   
    50    20    53 1   
    51    20    54 1   
    52    21    55 1   
    53    21    56 1   
    54    24    25 1   
    55    24    57 1   
    56    25    26 2   
    57    25    58 1   
    58    27    28 1   
    59    27    29 1   
    60    28    59 1   
    61    29    30 2   
    62    30    60 1   
    63    31    32 1   
    64    31    68 1   
    65    32    63 1   
    66    32    64 1   
    67    33    34 1   
    68    34    65 1   
    69    34    66 1   
    70    34    67 1   
    71    61    68 1   
    72    62    68 1   
@<TRIPOS>SUBSTRUCTURE
     1 FQB         1 TEMP              0 ****  ****    0 ROOT
