@<TRIPOS>MOLECULE
FQB
   68    72     1     0     0
SMALL
abcg2


@<TRIPOS>ATOM
      1 C1          12.1140     1.0030    -0.5530 c3         1 FQB       0.151600
      2 C2           9.8600     0.3410    -1.0930 c3         1 FQB       0.167800
      3 C3           9.4460    -0.2520     0.2550 c3         1 FQB      -0.032100
      4 C4           7.9640    -0.1310     0.4740 ca         1 FQB      -0.082300
      5 C5           7.0810    -1.0610    -0.0720 ca         1 FQB      -0.107500
      6 C6           5.7120    -0.9440     0.1090 ca         1 FQB      -0.105500
      7 C7           5.1710     0.1090     0.8470 ca         1 FQB      -0.073300
      8 C8           6.0530     1.0420     1.3830 ca         1 FQB      -0.105500
      9 C9           7.4250     0.9260     1.2000 ca         1 FQB      -0.107500
     10 C10          3.6860     0.2410     1.0640 c6         1 FQB      -0.016400
     11 C11          2.9240     0.4990    -0.2360 c6         1 FQB      -0.069900
     12 C14         -1.2890    -0.7590    -0.4830 c3         1 FQB       0.007900
     13 C15         -2.7630    -0.8140    -0.2510 cc         1 FQB      -0.202300
     14 C18         -6.0640     0.4070     0.2430 ca         1 FQB       0.476500
     15 C19         -7.0400     2.2560     1.1620 ca         1 FQB       0.335900
     16 C20         -8.2950     1.8930     0.7320 ca         1 FQB      -0.098000
     17 C21         -8.4150     0.7270    -0.0210 ca         1 FQB      -0.168600
     18 C22         -7.2840    -0.0430    -0.3120 ca         1 FQB       0.150400
     19 C24         -9.7170     0.3030    -0.5440 c          1 FQB       0.573600
     20 C25          1.5770    -0.8050     1.9390 c6         1 FQB       0.167300
     21 C26          3.0770    -0.9770     1.7590 c6         1 FQB      -0.069900
     22 O          -10.7680     0.8740    -0.3400 o          1 FQB      -0.519000
     23 N4          -5.9540     1.5140     0.9310 nb         1 FQB      -0.670000
     24 N6          -9.6340    -0.8340    -1.3110 ns         1 FQB      -0.427400
     25 C23         -8.4720    -1.4830    -1.5770 cc         1 FQB       0.501800
     26 N5          -7.3230    -1.1470    -1.1210 nd         1 FQB      -0.579100
     27 N2          -4.8740    -0.3120     0.0510 na         1 FQB       0.111300
     28 C16         -3.6570     0.2230    -0.2240 cd         1 FQB      -0.132000
     29 N3          -4.8190    -1.6350     0.2270 nd         1 FQB      -0.482800
     30 C17         -3.5550    -1.9460     0.0500 cc         1 FQB       0.246900
     31 N1           0.9110    -0.5860     0.6670 n3         1 FQB      -0.721600
     32 C12          1.4290     0.6070     0.0190 c6         1 FQB       0.167300
     33 N           11.2710     0.1690    -1.3820 n3         1 FQB      -0.716600
     34 C           11.5490     0.4000    -2.7830 c3         1 FQB       0.151600
     35 H1          11.9720     0.7790     0.5040 h1         1 FQB       0.029367
     36 H2          13.1630     0.8160    -0.7830 h1         1 FQB       0.029367
     37 H3          11.9270     2.0800    -0.6950 h1         1 FQB       0.029367
     38 H4           9.2930    -0.1700    -1.8770 h1         1 FQB       0.033200
     39 H5           9.5580     1.4030    -1.1350 h1         1 FQB       0.033200
     40 H6           9.7450    -1.3030     0.2780 hc         1 FQB       0.053700
     41 H7           9.9720     0.2470     1.0720 hc         1 FQB       0.053700
     42 H8           7.4720    -1.8970    -0.6410 ha         1 FQB       0.111000
     43 H9           5.0610    -1.6920    -0.3290 ha         1 FQB       0.111500
     44 H10          5.6620     1.8740     1.9580 ha         1 FQB       0.111500
     45 H11          8.0840     1.6670     1.6390 ha         1 FQB       0.111000
     46 H12          3.5240     1.1070     1.7180 hc         1 FQB       0.046700
     47 H13          3.2770     1.4200    -0.7060 hc         1 FQB       0.049450
     48 H14          3.1100    -0.3140    -0.9440 hc         1 FQB       0.049450
     49 H15         -0.9500    -1.6930    -0.9360 hc         1 FQB       0.051700
     50 H16         -1.0660     0.0370    -1.1970 hc         1 FQB       0.051700
     51 H17         -6.8870     3.1670     1.7260 h4         1 FQB       0.033100
     52 H18         -9.1580     2.5020     0.9620 ha         1 FQB       0.151000
     53 H19          1.1610    -1.7030     2.4020 h1         1 FQB       0.029700
     54 H20          1.3920     0.0270     2.6420 h1         1 FQB       0.029700
     55 H21          3.2680    -1.8790     1.1690 hc         1 FQB       0.049450
     56 H22          3.5430    -1.1310     2.7360 hc         1 FQB       0.049450
     57 H23        -10.4890    -1.1930    -1.7180 hn         1 FQB       0.336500
     58 H24         -8.5660    -2.3430    -2.2290 h5         1 FQB       0.055800
     59 H25         -3.5270     1.2800    -0.3960 h4         1 FQB       0.163000
     60 H26         -3.2310    -2.9730     0.1400 h4         1 FQB       0.039100
     61 H27         -0.8630     0.4030     1.2870 h1         1 FQB       0.033700
     62 H28         -0.8150    -1.3390     1.5190 h1         1 FQB       0.033700
     63 H30          1.2250     1.5070     0.6270 h1         1 FQB       0.029700
     64 H31          0.9170     0.7560    -0.9330 h1         1 FQB       0.029700
     65 H33         11.3330     1.4300    -3.1090 h1         1 FQB       0.029367
     66 H34         12.6020     0.2040    -2.9920 h1         1 FQB       0.029367
     67 H35         10.9560    -0.2760    -3.4010 h1         1 FQB       0.029367
     68 C13         -0.5290    -0.5430     0.8270 c3         1 FQB       0.168800
@<TRIPOS>BOND
     1     1    33 1   
     2     1    35 1   
     3     1    36 1   
     4     1    37 1   
     5     2     3 1   
     6     2    33 1   
     7     2    38 1   
     8     2    39 1   
     9     3     4 1   
    10     3    40 1   
    11     3    41 1   
    12     4     5 ar  
    13     4     9 ar  
    14     5     6 ar  
    15     5    42 1   
    16     6     7 ar  
    17     6    43 1   
    18     7     8 ar  
    19     7    10 1   
    20     8     9 ar  
    21     8    44 1   
    22     9    45 1   
    23    10    11 1   
    24    10    21 1   
    25    10    46 1   
    26    11    32 1   
    27    11    47 1   
    28    11    48 1   
    29    12    13 1   
    30    12    49 1   
    31    12    50 1   
    32    12    68 1   
    33    13    28 2   
    34    13    30 1   
    35    14    18 ar  
    36    14    23 ar  
    37    14    27 1   
    38    15    16 ar  
    39    15    23 ar  
    40    15    51 1   
    41    16    17 ar  
    42    16    52 1   
    43    17    18 ar  
    44    17    19 1   
    45    18    26 1   
    46    19    22 2   
    47    19    24 1   
    48    20    21 1   
    49    20    31 1   
    50    20    53 1   
    51    20    54 1   
    52    21    55 1   
    53    21    56 1   
    54    24    25 1   
    55    24    57 1   
    56    25    26 2   
    57    25    58 1   
    58    27    28 1   
    59    27    29 1   
    60    28    59 1   
    61    29    30 2   
    62    30    60 1   
    63    31    32 1   
    64    31    68 1   
    65    32    63 1   
    66    32    64 1   
    67    33    34 1   
    68    34    65 1   
    69    34    66 1   
    70    34    67 1   
    71    61    68 1   
    72    62    68 1   
@<TRIPOS>SUBSTRUCTURE
     1 FQB         1 TEMP              0 ****  ****    0 ROOT
