@<TRIPOS>MOLECULE
FQC
   33    36     1     0     0
SMALL
No Charge or Current Charge


@<TRIPOS>ATOM
      1 C1           2.6320     0.6170    -0.0570 ca         1 FQC      -0.174600
      2 C2           2.8600    -0.7560    -0.2220 ca         1 FQC       0.178400
      3 C3           4.1850    -1.2280    -0.2850 ca         1 FQC      -0.073000
      4 C4           5.2740    -0.3430    -0.1840 ca         1 FQC      -0.113000
      5 C5           5.0370     1.0280    -0.0200 ca         1 FQC       0.157000
      6 C6           3.7230     1.5120     0.0420 ca         1 FQC      -0.084000
      7 F7           6.0770     1.8850     0.0750 f          1 FQC      -0.168000
      8 C8           1.2330     1.1080    -0.0190 c          1 FQC       0.587600
      9 N9           0.2320     0.1380    -0.0880 n          1 FQC      -0.254500
     10 C10          0.5920    -1.2130    -0.2300 cc         1 FQC       0.621400
     11 N11          1.8380    -1.7010    -0.3160 nd         1 FQC      -0.634100
     12 N12         -0.3620    -2.2630    -0.1730 na         1 FQC      -0.089500
     13 N13         -1.5840    -2.2010     0.4350 nc         1 FQC      -0.508800
     14 C14         -2.0170    -3.4450     0.2550 cd         1 FQC       0.536900
     15 N15         -1.1200    -4.2750    -0.4140 nd         1 FQC      -0.691000
     16 C16         -0.0660    -3.5100    -0.6660 cc         1 FQC       0.467400
     17 O17          0.9790     2.3060     0.0280 o          1 FQC      -0.487000
     18 C18         -1.1400     0.5590    -0.2340 ca         1 FQC       0.031600
     19 C19         -1.8310     1.2020     0.8220 ca         1 FQC       0.167000
     20 C20         -3.1640     1.6110     0.6480 ca         1 FQC      -0.096000
     21 C21         -3.8160     1.3850    -0.5730 ca         1 FQC       0.137000
     22 C22         -3.1410     0.7460    -1.6250 ca         1 FQC      -0.100000
     23 C23         -1.8080     0.3330    -1.4570 ca         1 FQC      -0.081000
     24 Cl1         -1.0730     1.4450     2.3980 cl         1 FQC      -0.158000
     25 Cl2         -5.4850     1.8970    -0.7840 cl         1 FQC      -0.182000
     26 H1           4.3700    -2.2920    -0.4100 ha         1 FQC       0.142000
     27 H2           6.2930    -0.7170    -0.2330 ha         1 FQC       0.141000
     28 H3           3.5580     2.5810     0.1650 ha         1 FQC       0.158000
     29 H4          -2.9820    -3.8030     0.5970 h5         1 FQC       0.073100
     30 H5           0.8440    -3.7890    -1.1850 h5         1 FQC       0.081100
     31 H6          -3.6930     2.0940     1.4640 ha         1 FQC       0.149000
     32 H7          -3.6510     0.5720    -2.5690 ha         1 FQC       0.139000
     33 H8          -1.2910    -0.1560    -2.2800 ha         1 FQC       0.128000
@<TRIPOS>BOND
     1     1     2 ar  
     2     1     6 ar  
     3     1     8 1   
     4     2     3 ar  
     5     2    11 1   
     6     3     4 ar  
     7     3    26 1   
     8     4     5 ar  
     9     4    27 1   
    10     5     6 ar  
    11     5     7 1   
    12     6    28 1   
    13     8     9 1   
    14     8    17 2   
    15     9    10 1   
    16     9    18 1   
    17    10    11 2   
    18    10    12 1   
    19    12    13 1   
    20    12    16 1   
    21    13    14 2   
    22    14    15 1   
    23    14    29 1   
    24    15    16 2   
    25    16    30 1   
    26    18    19 ar  
    27    18    23 ar  
    28    19    20 ar  
    29    19    24 1   
    30    20    21 ar  
    31    20    31 1   
    32    21    22 ar  
    33    21    25 1   
    34    22    23 ar  
    35    22    32 1   
    36    23    33 1   
@<TRIPOS>SUBSTRUCTURE
     1 FQC         1 TEMP              0 ****  ****    0 ROOT
