@<TRIPOS>MOLECULE
FQC
   33    36     1     0     0
SMALL
abcg2


@<TRIPOS>ATOM
      1 C1           2.6220     0.6230    -0.0810 ca         1 FQC      -0.174600
      2 C2           2.8840    -0.7500    -0.1130 ca         1 FQC       0.178400
      3 C3           4.2100    -1.1940    -0.1430 ca         1 FQC      -0.073000
      4 C4           5.2440    -0.2850    -0.1390 ca         1 FQC      -0.113000
      5 C5           4.9520     1.0760    -0.1020 ca         1 FQC       0.157000
      6 C6           3.6650     1.5500    -0.0740 ca         1 FQC      -0.084000
      7 F7           5.9680     1.9450    -0.0940 f          1 FQC      -0.168000
      8 C8           1.2410     1.0870    -0.0820 c          1 FQC       0.587600
      9 N9           0.2890     0.0590    -0.1150 n          1 FQC      -0.254500
     10 C10          0.6720    -1.2570    -0.0920 cc         1 FQC       0.621400
     11 N11          1.8710    -1.6800    -0.0910 nd         1 FQC      -0.634100
     12 N12         -0.3500    -2.2140    -0.0970 na         1 FQC      -0.089500
     13 N13         -1.4070    -2.1550     0.7300 nc         1 FQC      -0.508800
     14 C14         -2.0450    -3.2590     0.4530 cd         1 FQC       0.536900
     15 N15         -1.4610    -4.0270    -0.5010 nd         1 FQC      -0.691000
     16 C16         -0.3930    -3.3520    -0.8210 cc         1 FQC       0.467400
     17 O17          0.8910     2.2440    -0.0850 o          1 FQC      -0.487000
     18 C18         -1.0690     0.4550    -0.2780 ca         1 FQC       0.031600
     19 C19         -1.8060     0.9030     0.8110 ca         1 FQC       0.167000
     20 C20         -3.1190     1.3070     0.6540 ca         1 FQC      -0.096000
     21 C21         -3.6850     1.2520    -0.6110 ca         1 FQC       0.137000
     22 C22         -2.9670     0.8080    -1.7090 ca         1 FQC      -0.100000
     23 C23         -1.6500     0.4170    -1.5320 ca         1 FQC      -0.081000
     24 CL1         -1.0900     0.9250     2.3720 cl         1 FQC      -0.158000
     25 CL2         -5.3260     1.7490    -0.8120 cl         1 FQC      -0.182000
     26 H1           4.4100    -2.2570    -0.1670 ha         1 FQC       0.142000
     27 H2           6.2740    -0.6180    -0.1620 ha         1 FQC       0.141000
     28 H3           3.4660     2.6130    -0.0490 ha         1 FQC       0.158000
     29 H4          -2.9610    -3.5280     0.9540 h5         1 FQC       0.073100
     30 H5           0.3550    -3.6130    -1.5530 h5         1 FQC       0.081100
     31 H6          -3.6910     1.6520     1.5040 ha         1 FQC       0.149000
     32 H7          -3.4180     0.7740    -2.6900 ha         1 FQC       0.139000
     33 H8          -1.0710     0.0790    -2.3820 ha         1 FQC       0.128000
@<TRIPOS>BOND
     1     1     2 ar  
     2     1     6 ar  
     3     1     8 1   
     4     2     3 ar  
     5     2    11 1   
     6     3     4 ar  
     7     3    26 1   
     8     4     5 ar  
     9     4    27 1   
    10     5     6 ar  
    11     5     7 1   
    12     6    28 1   
    13     8     9 1   
    14     8    17 2   
    15     9    10 1   
    16     9    18 1   
    17    10    11 2   
    18    10    12 1   
    19    12    13 1   
    20    12    16 1   
    21    13    14 2   
    22    14    15 1   
    23    14    29 1   
    24    15    16 2   
    25    16    30 1   
    26    18    19 ar  
    27    18    23 ar  
    28    19    20 ar  
    29    19    24 1   
    30    20    21 ar  
    31    20    31 1   
    32    21    22 ar  
    33    21    25 1   
    34    22    23 ar  
    35    22    32 1   
    36    23    33 1   
@<TRIPOS>SUBSTRUCTURE
     1 FQC         1 TEMP              0 ****  ****    0 ROOT
