@<TRIPOS>MOLECULE
FQD
   24    26     1     0     0
SMALL
No Charge or Current Charge


@<TRIPOS>ATOM
      1 C1           0.2690     0.6750     0.1790 cc         1 FQD       0.017000
      2 C2           0.6560     1.9960     0.1050 cd         1 FQD      -0.261000
      3 C6           3.7020    -1.5930    -0.0480 cc         1 FQD       0.501800
      4 C10         -3.4780     1.0670     0.6640 ca         1 FQD      -0.155500
      5 C9          -3.9730     0.0110    -0.1130 ca         1 FQD       0.177000
      6 C7          -2.0910     1.2790     0.7570 ca         1 FQD      -0.056000
      7 C11         -3.0890    -0.8290    -0.8030 ca         1 FQD      -0.155500
      8 C8          -1.7010    -0.6190    -0.7070 ca         1 FQD      -0.056000
      9 C5          -1.1810     0.4260     0.0890 ca         1 FQD      -0.041000
     10 C            1.3760    -0.2400     0.1110 cc         1 FQD      -0.229600
     11 C4           1.3130    -1.7080     0.2310 c          1 FQD       0.593600
     12 O            0.3210    -2.3830     0.4490 o          1 FQD      -0.524000
     13 N1           2.5320    -2.2800     0.1150 ns         1 FQD      -0.421400
     14 N            3.7970    -0.2630    -0.0950 nd         1 FQD      -0.598100
     15 C3           2.5800     0.4180    -0.0050 cd         1 FQD       0.058400
     16 S            2.4130     2.1820    -0.0150 ss         1 FQD       0.284000
     17 H1           0.0330     2.8790     0.0580 h4         1 FQD       0.158000
     18 H2           4.5650    -2.2450    -0.1140 h5         1 FQD       0.051800
     19 H3          -4.1680     1.7190     1.1920 ha         1 FQD       0.132000
     20 H4          -1.7250     2.0960     1.3750 ha         1 FQD       0.120500
     21 H5          -3.4780    -1.6340    -1.4210 ha         1 FQD       0.132000
     22 H6          -1.0360    -1.2480    -1.2910 ha         1 FQD       0.120500
     23 H7           2.5600    -3.2870     0.1780 hn         1 FQD       0.332500
     24 F           -5.3050    -0.1910    -0.2060 f          1 FQD      -0.180000
@<TRIPOS>BOND
     1     1     2 2   
     2     1     9 1   
     3     1    10 1   
     4     2    16 1   
     5     2    17 1   
     6     3    13 1   
     7     3    14 2   
     8     3    18 1   
     9     4     5 ar  
    10     4     6 ar  
    11     4    19 1   
    12     5     7 ar  
    13     5    24 1   
    14     6     9 ar  
    15     6    20 1   
    16     7     8 ar  
    17     7    21 1   
    18     8     9 ar  
    19     8    22 1   
    20    10    11 1   
    21    10    15 2   
    22    11    12 2   
    23    11    13 1   
    24    13    23 1   
    25    14    15 1   
    26    15    16 1   
@<TRIPOS>SUBSTRUCTURE
     1 FQD         1 TEMP              0 ****  ****    0 ROOT
