@<TRIPOS>MOLECULE
FQD
   24    26     1     0     0
SMALL
abcg2


@<TRIPOS>ATOM
      1 C1           0.2390     0.7150    -0.0370 cc         1 FQD       0.017000
      2 C2           0.7210     1.9830    -0.1430 cd         1 FQD      -0.261000
      3 C6           3.6840    -1.5460     0.1550 cc         1 FQD       0.501800
      4 C10         -3.4100     0.9050     0.8640 ca         1 FQD      -0.155500
      5 C9          -3.9370    -0.0010    -0.0340 ca         1 FQD       0.177000
      6 C7          -2.0380     1.1130     0.8630 ca         1 FQD      -0.056000
      7 C11         -3.1440    -0.6990    -0.9260 ca         1 FQD      -0.155500
      8 C8          -1.7760    -0.4810    -0.9100 ca         1 FQD      -0.056000
      9 C5          -1.2050     0.4270    -0.0180 ca         1 FQD      -0.041000
     10 C            1.3100    -0.2370     0.0320 cc         1 FQD      -0.229600
     11 C4           1.2550    -1.6670     0.2270 c          1 FQD       0.593600
     12 O            0.2650    -2.3600     0.3690 o          1 FQD      -0.524000
     13 N1           2.5270    -2.2310     0.2540 ns         1 FQD      -0.421400
     14 N            3.7570    -0.2660     0.0170 nd         1 FQD      -0.598100
     15 C3           2.5590     0.3580    -0.0350 cd         1 FQD       0.058400
     16 S            2.4390     2.0680    -0.1720 ss         1 FQD       0.284000
     17 H1           0.1410     2.8900    -0.2330 h4         1 FQD       0.158000
     18 H2           4.5880    -2.1390     0.2040 h5         1 FQD       0.051800
     19 H3          -4.0520     1.4360     1.5540 ha         1 FQD       0.132000
     20 H4          -1.6100     1.8150     1.5670 ha         1 FQD       0.120500
     21 H5          -3.5870    -1.3970    -1.6240 ha         1 FQD       0.132000
     22 H6          -1.1520    -1.0110    -1.6160 ha         1 FQD       0.120500
     23 H7           2.5800    -3.2350     0.3730 hn         1 FQD       0.332500
     24 F           -5.2630    -0.2110    -0.0440 f          1 FQD      -0.180000
@<TRIPOS>BOND
     1     1     2 2   
     2     1     9 1   
     3     1    10 1   
     4     2    16 1   
     5     2    17 1   
     6     3    13 1   
     7     3    14 2   
     8     3    18 1   
     9     4     5 ar  
    10     4     6 ar  
    11     4    19 1   
    12     5     7 ar  
    13     5    24 1   
    14     6     9 ar  
    15     6    20 1   
    16     7     8 ar  
    17     7    21 1   
    18     8     9 ar  
    19     8    22 1   
    20    10    11 1   
    21    10    15 2   
    22    11    12 2   
    23    11    13 1   
    24    13    23 1   
    25    14    15 1   
    26    15    16 1   
@<TRIPOS>SUBSTRUCTURE
     1 FQD         1 TEMP              0 ****  ****    0 ROOT
