@<TRIPOS>MOLECULE
FQE
   68    72     1     0     0
SMALL
No Charge or Current Charge


@<TRIPOS>ATOM
      1 C2          -8.8970     1.6070     0.4990 c3         1 FQE       0.165800
      2 C4          -7.5430    -0.5380     0.3190 ca         1 FQE      -0.080300
      3 N6           7.2200     1.6730     2.6900 ns         1 FQE      -0.426400
      4 C7          -5.6840    -1.9810    -1.2280 ca         1 FQE      -0.106000
      5 C9          -7.9890    -1.4230    -0.6800 ca         1 FQE      -0.109000
      6 C10         -3.7180    -0.9070     0.0200 c6         1 FQE      -0.018400
      7 C11         -3.0260    -2.2200     0.4640 c6         1 FQE      -0.069900
      8 C12         -1.5130    -1.9990     0.6990 c6         1 FQE       0.166300
      9 C14          1.4490    -1.0350    -1.5960 c3         1 FQE       0.006900
     10 C15          2.9360    -1.1270    -1.3740 cc         1 FQE      -0.201300
     11 C16          3.8590    -0.1260    -1.2730 cd         1 FQE      -0.131000
     12 C20          8.5220     1.4990    -0.7500 ca         1 FQE      -0.099000
     13 C21          7.7210     1.3210     0.3950 ca         1 FQE      -0.167600
     14 C22          6.5460     0.5390     0.3020 ca         1 FQE       0.149400
     15 C23          6.0920     0.9090     2.5560 cc         1 FQE       0.500800
     16 C24          8.0900     1.9390     1.6940 c          1 FQE       0.572600
     17 C25         -1.4670    -0.1710    -0.9460 c6         1 FQE       0.166300
     18 O            9.0840     2.6270     1.8670 o          1 FQE      -0.520000
     19 C19          8.1370     0.9000    -1.9540 ca         1 FQE       0.337900
     20 N4           7.0230     0.1500    -2.0740 nb         1 FQE      -0.672000
     21 N5           5.6960     0.3240     1.4240 nd         1 FQE      -0.578100
     22 C18          6.2280    -0.0410    -0.9780 ca         1 FQE       0.478500
     23 N2           5.0550    -0.8170    -1.0600 na         1 FQE       0.111300
     24 N3           4.9480    -2.2020    -1.0610 nd         1 FQE      -0.482800
     25 C17          3.6490    -2.3410    -1.2390 cc         1 FQE       0.245900
     26 N1          -0.8370    -1.4530    -0.5120 n3         1 FQE      -0.719600
     27 C26         -2.9820    -0.3380    -1.2200 c6         1 FQE      -0.069900
     28 C6          -5.2220    -1.0960    -0.2320 ca         1 FQE      -0.072300
     29 C5          -6.1600    -0.3780     0.5360 ca         1 FQE      -0.104000
     30 C8          -7.0620    -2.1430    -1.4500 ca         1 FQE      -0.110000
     31 C3          -8.5470     0.2490     1.1510 c3         1 FQE      -0.032100
     32 N           -9.7520     2.5030     1.3220 n3         1 FQE      -0.714600
     33 H1          -7.9480     2.1180     0.2840 h1         1 FQE       0.033200
     34 H2          -9.3790     1.4150    -0.4700 h1         1 FQE       0.033200
     35 H4          -4.9780    -2.5450    -1.8340 ha         1 FQE       0.114000
     36 H5          -9.0540    -1.5530    -0.8600 ha         1 FQE       0.110000
     37 H6          -3.5930    -0.1800     0.8350 hc         1 FQE       0.047700
     38 H7          -3.4910    -2.5940     1.3870 hc         1 FQE       0.049700
     39 H8          -3.1630    -3.0020    -0.2950 hc         1 FQE       0.049700
     40 H9          -1.3780    -1.3130     1.5490 h1         1 FQE       0.030450
     41 H10         -1.0610    -2.9600     0.9850 h1         1 FQE       0.030450
     42 H11          1.2010    -0.0270    -1.9480 hc         1 FQE       0.052200
     43 H12          1.1540    -1.7290    -2.3930 hc         1 FQE       0.052200
     44 H13          3.7750     0.9540    -1.3230 h4         1 FQE       0.163000
     45 H14          9.4320     2.0930    -0.7170 ha         1 FQE       0.151000
     46 H15          5.5340     0.8230     3.4800 h5         1 FQE       0.055800
     47 H16         -1.3250     0.6010    -0.1740 h1         1 FQE       0.030450
     48 H17         -1.0000     0.2030    -1.8670 h1         1 FQE       0.030450
     49 H18          8.7400     1.0230    -2.8530 h4         1 FQE       0.033100
     50 H19          3.2390    -3.3420    -1.2760 h4         1 FQE       0.039100
     51 H23         -3.1180    -1.0030    -2.0840 hc         1 FQE       0.049700
     52 H24         -3.4150     0.6310    -1.5000 hc         1 FQE       0.049700
     53 H25         -5.8170     0.3100     1.3060 ha         1 FQE       0.111000
     54 H26         -7.4110    -2.8260    -2.2210 ha         1 FQE       0.111000
     55 H27         -8.1450     0.4300     2.1550 hc         1 FQE       0.053700
     56 H28         -9.4590    -0.3440     1.2840 hc         1 FQE       0.053700
     57 C1          -9.8450     3.8630     0.7450 c3         1 FQE       0.149600
     58 C27        -11.0910     1.9420     1.6260 c3         1 FQE       0.149600
     59 H29        -10.3490     3.8410    -0.2310 h1         1 FQE       0.029867
     60 H30        -10.4120     4.5290     1.4100 h1         1 FQE       0.029867
     61 H22         -8.8460     4.2960     0.6070 h1         1 FQE       0.029867
     62 H33        -11.0110     1.0100     2.2000 h1         1 FQE       0.029867
     63 H32        -11.6780     2.6480     2.2280 h1         1 FQE       0.029867
     64 H31        -11.6480     1.7340     0.7020 h1         1 FQE       0.029867
     65 C13          0.6350    -1.3590    -0.3210 c3         1 FQE       0.167800
     66 H3           7.4340     2.0740     3.5920 hn         1 FQE       0.336500
     67 H20          1.0040    -2.3200     0.0640 h1         1 FQE       0.032700
     68 H21          0.8660    -0.6030     0.4420 h1         1 FQE       0.032700
@<TRIPOS>BOND
     1     1    31 1   
     2     1    32 1   
     3     1    33 1   
     4     1    34 1   
     5     2     5 ar  
     6     2    29 ar  
     7     2    31 1   
     8     3    15 1   
     9     3    16 1   
    10     3    66 1   
    11     4    28 ar  
    12     4    30 ar  
    13     4    35 1   
    14     5    30 ar  
    15     5    36 1   
    16     6     7 1   
    17     6    27 1   
    18     6    28 1   
    19     6    37 1   
    20     7     8 1   
    21     7    38 1   
    22     7    39 1   
    23     8    26 1   
    24     8    40 1   
    25     8    41 1   
    26     9    10 1   
    27     9    42 1   
    28     9    43 1   
    29     9    65 1   
    30    10    11 2   
    31    10    25 1   
    32    11    23 1   
    33    11    44 1   
    34    12    13 ar  
    35    12    19 ar  
    36    12    45 1   
    37    13    14 ar  
    38    13    16 1   
    39    14    21 1   
    40    14    22 ar  
    41    15    21 2   
    42    15    46 1   
    43    16    18 2   
    44    17    26 1   
    45    17    27 1   
    46    17    47 1   
    47    17    48 1   
    48    19    20 ar  
    49    19    49 1   
    50    20    22 ar  
    51    22    23 1   
    52    23    24 1   
    53    24    25 2   
    54    25    50 1   
    55    26    65 1   
    56    27    51 1   
    57    27    52 1   
    58    28    29 ar  
    59    29    53 1   
    60    30    54 1   
    61    31    55 1   
    62    31    56 1   
    63    32    57 1   
    64    32    58 1   
    65    57    59 1   
    66    57    60 1   
    67    57    61 1   
    68    58    62 1   
    69    58    63 1   
    70    58    64 1   
    71    65    67 1   
    72    65    68 1   
@<TRIPOS>SUBSTRUCTURE
     1 FQE         1 TEMP              0 ****  ****    0 ROOT
