@<TRIPOS>MOLECULE
FQE
   68    72     1     0     0
SMALL
bcc


@<TRIPOS>ATOM
      1 C2          -8.9060     1.5430     0.1940 c3         1 FQE       0.165800
      2 C4          -7.6590    -0.6110     0.3250 ca         1 FQE      -0.080300
      3 N6           8.7670     0.3060     2.1900 ns         1 FQE      -0.493400
      4 C7          -5.7340    -2.1440    -0.9950 ca         1 FQE      -0.124000
      5 C9          -8.0420    -1.5870    -0.5890 ca         1 FQE      -0.127000
      6 C10         -3.8620    -0.9260     0.1950 c6         1 FQE      -0.018400
      7 C11         -3.1310    -2.1630     0.7160 c6         1 FQE      -0.069900
      8 C12         -1.6640    -1.8500     0.9690 c6         1 FQE       0.166300
      9 C14          1.2180    -0.9730    -1.2800 c3         1 FQE       0.006900
     10 C15          2.6840    -0.9040    -1.0090 cc         1 FQE      -0.266600
     11 C16          3.5040     0.1910    -1.0640 cd         1 FQE      -0.098300
     12 C20          8.1410     2.1070    -0.9350 ca         1 FQE      -0.182300
     13 C21          8.0240     1.2410     0.1500 ca         1 FQE      -0.167600
     14 C22          6.8770     0.4550     0.3060 ca         1 FQE       0.084100
     15 C23          7.5950    -0.3730     2.2770 cc         1 FQE       0.500800
     16 C24          9.0840     1.1570     1.1600 c          1 FQE       0.715100
     17 C25         -1.6550    -0.1540    -0.7200 c6         1 FQE       0.166300
     18 O           10.1360     1.7620     1.1150 o          1 FQE      -0.595500
     19 C19          7.0980     2.1630    -1.8290 ca         1 FQE       0.403200
     20 N4           6.0160     1.3870    -1.7260 nb         1 FQE      -0.672000
     21 N5           6.6610    -0.3390     1.4010 nd         1 FQE      -0.578100
     22 C18          5.9100     0.5570    -0.7210 ca         1 FQE       0.543800
     23 N2           4.7450    -0.2230    -0.7000 na         1 FQE       0.060600
     24 N3           4.7830    -1.5320    -0.4320 nd         1 FQE      -0.482800
     25 C17          3.5500    -1.9500    -0.6090 cc         1 FQE       0.311200
     26 N1          -1.0060    -1.3590    -0.2300 n3         1 FQE      -0.719600
     27 C26         -3.1220    -0.4010    -1.0350 c6         1 FQE      -0.069900
     28 C6          -5.3230    -1.1740    -0.0810 ca         1 FQE      -0.072300
     29 C5          -6.2990    -0.4220     0.5650 ca         1 FQE      -0.122000
     30 C8          -7.0830    -2.3490    -1.2440 ca         1 FQE      -0.128000
     31 C3          -8.6790     0.2630     0.9990 c3         1 FQE      -0.032100
     32 N           -9.7570     2.5080     0.8630 n3         1 FQE      -0.714600
     33 H1          -7.9350     2.0160     0.0220 h1         1 FQE       0.033200
     34 H2          -9.2990     1.2740    -0.8030 h1         1 FQE       0.033200
     35 H4          -5.0000    -2.7450    -1.5190 ha         1 FQE       0.132000
     36 H5          -9.0950    -1.7540    -0.7880 ha         1 FQE       0.128000
     37 H6          -3.7960    -0.1540     0.9720 hc         1 FQE       0.047700
     38 H7          -3.5910    -2.5130     1.6430 hc         1 FQE       0.049700
     39 H8          -3.2060    -2.9780    -0.0100 hc         1 FQE       0.049700
     40 H9          -1.5910    -1.1200     1.7960 h1         1 FQE       0.030450
     41 H10         -1.1490    -2.7540     1.3020 h1         1 FQE       0.030450
     42 H11          0.9140    -0.0610    -1.7960 hc         1 FQE       0.052200
     43 H12          1.0030    -1.8050    -1.9560 hc         1 FQE       0.052200
     44 H13          3.2980     1.2180    -1.3190 h4         1 FQE       0.181000
     45 H14          9.0190     2.7240    -1.0650 ha         1 FQE       0.169000
     46 H15          7.4790    -0.9740     3.1700 h5         1 FQE       0.055800
     47 H16         -1.5750     0.6680     0.0160 h1         1 FQE       0.030450
     48 H17         -1.1510     0.1860    -1.6250 h1         1 FQE       0.030450
     49 H18          7.1260     2.8380    -2.6750 h4         1 FQE       0.033100
     50 H19          3.3050    -2.9920    -0.4600 h4         1 FQE       0.039100
     51 H23         -3.2000    -1.1240    -1.8530 hc         1 FQE       0.049700
     52 H24         -3.5780     0.5290    -1.3830 hc         1 FQE       0.049700
     53 H25         -5.9920     0.3370     1.2780 ha         1 FQE       0.129000
     54 H26         -7.3890    -3.1090    -1.9520 ha         1 FQE       0.129000
     55 H27         -8.3430     0.5330     2.0040 hc         1 FQE       0.053700
     56 H28         -9.6140    -0.2900     1.1090 hc         1 FQE       0.053700
     57 C1          -9.7360     3.7760     0.1660 c3         1 FQE       0.149600
     58 C27        -11.1160     2.0340     1.0200 c3         1 FQE       0.149600
     59 H29        -10.1360     3.7160    -0.8590 h1         1 FQE       0.029867
     60 H30        -10.3280     4.5140     0.7090 h1         1 FQE       0.029867
     61 H22         -8.7130     4.1510     0.1000 h1         1 FQE       0.029867
     62 H33        -11.1530     1.1490     1.6560 h1         1 FQE       0.029867
     63 H32        -11.7210     2.8030     1.5030 h1         1 FQE       0.029867
     64 H31        -11.5980     1.7800     0.0620 h1         1 FQE       0.029867
     65 C13          0.4120    -1.1630     0.0050 c3         1 FQE       0.167800
     66 H3           9.4440     0.1920     2.9340 hn         1 FQE       0.336500
     67 H20          0.7910    -2.0530     0.5150 h1         1 FQE       0.032700
     68 H21          0.6010    -0.3130     0.6830 h1         1 FQE       0.032700
@<TRIPOS>BOND
     1     1    31 1   
     2     1    32 1   
     3     1    33 1   
     4     1    34 1   
     5     2     5 ar  
     6     2    29 ar  
     7     2    31 1   
     8     3    15 1   
     9     3    16 1   
    10     3    66 1   
    11     4    28 ar  
    12     4    30 ar  
    13     4    35 1   
    14     5    30 ar  
    15     5    36 1   
    16     6     7 1   
    17     6    27 1   
    18     6    28 1   
    19     6    37 1   
    20     7     8 1   
    21     7    38 1   
    22     7    39 1   
    23     8    26 1   
    24     8    40 1   
    25     8    41 1   
    26     9    10 1   
    27     9    42 1   
    28     9    43 1   
    29     9    65 1   
    30    10    11 2   
    31    10    25 1   
    32    11    23 1   
    33    11    44 1   
    34    12    13 ar  
    35    12    19 ar  
    36    12    45 1   
    37    13    14 ar  
    38    13    16 1   
    39    14    21 1   
    40    14    22 ar  
    41    15    21 2   
    42    15    46 1   
    43    16    18 2   
    44    17    26 1   
    45    17    27 1   
    46    17    47 1   
    47    17    48 1   
    48    19    20 ar  
    49    19    49 1   
    50    20    22 ar  
    51    22    23 1   
    52    23    24 1   
    53    24    25 2   
    54    25    50 1   
    55    26    65 1   
    56    27    51 1   
    57    27    52 1   
    58    28    29 ar  
    59    29    53 1   
    60    30    54 1   
    61    31    55 1   
    62    31    56 1   
    63    32    57 1   
    64    32    58 1   
    65    57    59 1   
    66    57    60 1   
    67    57    61 1   
    68    58    62 1   
    69    58    63 1   
    70    58    64 1   
    71    65    67 1   
    72    65    68 1   
@<TRIPOS>SUBSTRUCTURE
     1 FQE         1 TEMP              0 ****  ****    0 ROOT
