@<TRIPOS>MOLECULE
FQF
   53    52     1     0     0
SMALL
No Charge or Current Charge


@<TRIPOS>ATOM
      1 C1          -4.1170   -25.0410    13.7390 c3         1 FQF       0.132600
      2 C2          -4.9740   -24.3990    12.6120 c3         1 FQF       0.172300
      3 C3          -6.2280   -25.2380    12.2420 c3         1 FQF       0.161600
      4 C7          -9.2300   -25.2530    12.2020 c2         1 FQF      -0.284200
      5 C8          -9.9970   -24.1750    12.4540 c2         1 FQF      -0.069400
      6 C9         -10.8870   -23.5560    11.3840 c3         1 FQF      -0.042200
      7 C10        -10.1110   -23.4940    13.8120 c3         1 FQF      -0.060900
      8 C11        -10.1880   -22.4730    10.5290 c3         1 FQF      -0.031200
      9 C12         -9.9180   -21.1800    11.2820 c2         1 FQF      -0.220200
     10 C13         -8.7590   -20.7560    11.8240 c2         1 FQF      -0.106400
     11 C14         -7.4530   -21.5410    11.8340 c3         1 FQF      -0.054900
     12 C6          -8.3420   -26.0010    13.1780 c3         1 FQF       0.203800
     13 O6          -4.1300   -24.2290    11.4600 oh         1 FQF      -0.710000
     14 O1          -3.4140   -26.1930    13.2350 oh         1 FQF      -0.648000
     15 O5          -7.1310   -25.2480    13.3690 os         1 FQF      -0.464000
     16 C15         -8.6490   -19.4120    12.5330 c3         1 FQF      -0.036200
     17 C16         -7.8880   -18.3430    11.7180 c3         1 FQF      -0.033200
     18 C17         -8.5170   -18.0890    10.3590 c2         1 FQF      -0.216200
     19 C18         -9.5000   -17.2200    10.0560 c2         1 FQF      -0.118400
     20 C19        -10.0320   -17.0560     8.6440 c3         1 FQF      -0.054400
     21 C20        -10.2110   -16.3120    11.0490 c3         1 FQF      -0.054400
     22 H1          -3.4010   -24.2950    14.1100 h1         1 FQF       0.022700
     23 H2          -4.7650   -25.3210    14.5800 h1         1 FQF       0.022700
     24 H3          -5.3210   -23.4170    12.9620 h1         1 FQF       0.037700
     25 H4          -5.9230   -26.2600    11.9790 h1         1 FQF       0.044700
     26 H5          -6.7100   -24.7890    11.3640 h1         1 FQF       0.044700
     27 H6          -9.2230   -25.6880    11.2030 ha         1 FQF       0.170000
     28 H7         -11.8060   -23.1460    11.8220 hc         1 FQF       0.044200
     29 H8         -11.2190   -24.3450    10.6980 hc         1 FQF       0.044200
     30 H9          -9.4550   -23.9430    14.5640 hc         1 FQF       0.044700
     31 H10         -9.8470   -22.4340    13.7550 hc         1 FQF       0.044700
     32 H11        -11.1360   -23.5580    14.1960 hc         1 FQF       0.044700
     33 H12         -9.2710   -22.8930    10.1010 hc         1 FQF       0.044700
     34 H13        -10.8300   -22.2490     9.6680 hc         1 FQF       0.044700
     35 H14        -10.7970   -20.5370    11.3420 ha         1 FQF       0.163000
     36 H15         -7.0670   -21.6420    12.8550 hc         1 FQF       0.039700
     37 H16         -7.5640   -22.5550    11.4400 hc         1 FQF       0.039700
     38 H17         -6.6840   -21.0420    11.2340 hc         1 FQF       0.039700
     39 H18         -8.8660   -26.1280    14.1340 h1         1 FQF       0.046200
     40 H19         -8.1190   -27.0060    12.7940 h1         1 FQF       0.046200
     41 H20         -3.4820   -24.9710    11.5390 ho         1 FQF       0.503000
     42 H21         -2.9530   -26.6060    14.0000 ho         1 FQF       0.439000
     43 H22         -9.6500   -19.0200    12.7500 hc         1 FQF       0.043200
     44 H23         -8.1630   -19.5350    13.5090 hc         1 FQF       0.043200
     45 H24         -6.8440   -18.6540    11.5910 hc         1 FQF       0.041700
     46 H25         -7.8450   -17.4180    12.3050 hc         1 FQF       0.041700
     47 H26         -8.0820   -18.7040     9.5690 ha         1 FQF       0.169000
     48 H27         -9.5160   -17.7150     7.9360 hc         1 FQF       0.037200
     49 H28        -11.1010   -17.2950     8.5940 hc         1 FQF       0.037200
     50 H29         -9.9020   -16.0270     8.2900 hc         1 FQF       0.037200
     51 H30         -9.8760   -16.4610    12.0810 hc         1 FQF       0.037200
     52 H31        -10.0460   -15.2560    10.8010 hc         1 FQF       0.037200
     53 H32        -11.2930   -16.4910    11.0370 hc         1 FQF       0.037200
@<TRIPOS>BOND
     1     1     2 1   
     2     1    14 1   
     3     1    22 1   
     4     1    23 1   
     5     2     3 1   
     6     2    13 1   
     7     2    24 1   
     8     3    15 1   
     9     3    25 1   
    10     3    26 1   
    11     4     5 2   
    12     4    12 1   
    13     4    27 1   
    14     5     6 1   
    15     5     7 1   
    16     6     8 1   
    17     6    28 1   
    18     6    29 1   
    19     7    30 1   
    20     7    31 1   
    21     7    32 1   
    22     8     9 1   
    23     8    33 1   
    24     8    34 1   
    25     9    10 2   
    26     9    35 1   
    27    10    11 1   
    28    10    16 1   
    29    11    36 1   
    30    11    37 1   
    31    11    38 1   
    32    12    15 1   
    33    12    39 1   
    34    12    40 1   
    35    13    41 1   
    36    14    42 1   
    37    16    17 1   
    38    16    43 1   
    39    16    44 1   
    40    17    18 1   
    41    17    45 1   
    42    17    46 1   
    43    18    19 2   
    44    18    47 1   
    45    19    20 1   
    46    19    21 1   
    47    20    48 1   
    48    20    49 1   
    49    20    50 1   
    50    21    51 1   
    51    21    52 1   
    52    21    53 1   
@<TRIPOS>SUBSTRUCTURE
     1 FQF         1 TEMP              0 ****  ****    0 ROOT
