@<TRIPOS>MOLECULE
FQF
   53    52     1     0     0
SMALL
abcg2


@<TRIPOS>ATOM
      1 C1          -4.2120   -25.0540    13.8070 c3         1 FQF       0.132600
      2 C2          -5.0280   -24.3110    12.7630 c3         1 FQF       0.172300
      3 C3          -6.2760   -25.0640    12.3200 c3         1 FQF       0.161600
      4 C7          -9.2350   -25.3050    12.1980 c2         1 FQF      -0.284200
      5 C8         -10.0290   -24.2660    12.4760 c2         1 FQF      -0.069400
      6 C9         -10.9130   -23.6840    11.4010 c3         1 FQF      -0.042200
      7 C10        -10.1150   -23.6160    13.8240 c3         1 FQF      -0.060900
      8 C11        -10.2430   -22.5750    10.5690 c3         1 FQF      -0.031200
      9 C12         -9.9180   -21.3330    11.3390 c2         1 FQF      -0.220200
     10 C13         -8.7180   -20.8620    11.6870 c2         1 FQF      -0.106400
     11 C14         -7.4170   -21.5390    11.3760 c3         1 FQF      -0.054900
     12 C6          -8.2860   -25.9660    13.1610 c3         1 FQF       0.203800
     13 O6          -4.2920   -24.0460    11.5870 oh         1 FQF      -0.710000
     14 O1          -3.8350   -26.3190    13.3170 oh         1 FQF      -0.648000
     15 O5          -7.1180   -25.2150    13.4340 os         1 FQF      -0.464000
     16 C15         -8.6000   -19.5760    12.4600 c3         1 FQF      -0.036200
     17 C16         -7.8810   -18.4510    11.6940 c3         1 FQF      -0.033200
     18 C17         -8.5250   -18.1570    10.3730 c2         1 FQF      -0.216200
     19 C18         -9.4280   -17.2110    10.1050 c2         1 FQF      -0.118400
     20 C19        -10.0150   -17.0680     8.7300 c3         1 FQF      -0.054400
     21 C20         -9.9470   -16.2240    11.1080 c3         1 FQF      -0.054400
     22 H1          -3.3340   -24.4410    14.0590 h1         1 FQF       0.022700
     23 H2          -4.8100   -25.1270    14.7230 h1         1 FQF       0.022700
     24 H3          -5.3530   -23.3750    13.2420 h1         1 FQF       0.037700
     25 H4          -6.0060   -26.0400    11.8940 h1         1 FQF       0.044700
     26 H5          -6.7680   -24.4910    11.5240 h1         1 FQF       0.044700
     27 H6          -9.2610   -25.7070    11.1890 ha         1 FQF       0.170000
     28 H7         -11.8320   -23.2930    11.8480 hc         1 FQF       0.044200
     29 H8         -11.2140   -24.4770    10.7130 hc         1 FQF       0.044200
     30 H9          -9.4590   -24.0640    14.5670 hc         1 FQF       0.044700
     31 H10         -9.8650   -22.5560    13.7520 hc         1 FQF       0.044700
     32 H11        -11.1400   -23.6660    14.2000 hc         1 FQF       0.044700
     33 H12         -9.3610   -22.9890    10.0770 hc         1 FQF       0.044700
     34 H13        -10.9400   -22.3080     9.7680 hc         1 FQF       0.044700
     35 H14        -10.7860   -20.7540    11.6480 ha         1 FQF       0.163000
     36 H15         -6.8810   -21.7720    12.3000 hc         1 FQF       0.039700
     37 H16         -7.5370   -22.4680    10.8230 hc         1 FQF       0.039700
     38 H17         -6.7580   -20.8910    10.7930 hc         1 FQF       0.039700
     39 H18         -8.7630   -26.1300    14.1290 h1         1 FQF       0.046200
     40 H19         -8.0120   -26.9550    12.7700 h1         1 FQF       0.046200
     41 H20         -3.5530   -23.4740    11.8160 ho         1 FQF       0.503000
     42 H21         -3.3480   -26.7750    14.0080 ho         1 FQF       0.439000
     43 H22         -9.5960   -19.2230    12.7400 hc         1 FQF       0.043200
     44 H23         -8.0550   -19.7620    13.3920 hc         1 FQF       0.043200
     45 H24         -6.8370   -18.7310    11.5310 hc         1 FQF       0.041700
     46 H25         -7.8550   -17.5650    12.3310 hc         1 FQF       0.041700
     47 H26         -8.2450   -18.8220     9.5600 ha         1 FQF       0.169000
     48 H27         -9.6130   -17.8040     8.0340 hc         1 FQF       0.037200
     49 H28        -11.1020   -17.1830     8.7540 hc         1 FQF       0.037200
     50 H29         -9.8190   -16.0730     8.3220 hc         1 FQF       0.037200
     51 H30         -9.5100   -16.3380    12.0980 hc         1 FQF       0.037200
     52 H31         -9.7580   -15.2000    10.7740 hc         1 FQF       0.037200
     53 H32        -11.0310   -16.3170    11.2110 hc         1 FQF       0.037200
@<TRIPOS>BOND
     1     1     2 1   
     2     1    14 1   
     3     1    22 1   
     4     1    23 1   
     5     2     3 1   
     6     2    13 1   
     7     2    24 1   
     8     3    15 1   
     9     3    25 1   
    10     3    26 1   
    11     4     5 2   
    12     4    12 1   
    13     4    27 1   
    14     5     6 1   
    15     5     7 1   
    16     6     8 1   
    17     6    28 1   
    18     6    29 1   
    19     7    30 1   
    20     7    31 1   
    21     7    32 1   
    22     8     9 1   
    23     8    33 1   
    24     8    34 1   
    25     9    10 2   
    26     9    35 1   
    27    10    11 1   
    28    10    16 1   
    29    11    36 1   
    30    11    37 1   
    31    11    38 1   
    32    12    15 1   
    33    12    39 1   
    34    12    40 1   
    35    13    41 1   
    36    14    42 1   
    37    16    17 1   
    38    16    43 1   
    39    16    44 1   
    40    17    18 1   
    41    17    45 1   
    42    17    46 1   
    43    18    19 2   
    44    18    47 1   
    45    19    20 1   
    46    19    21 1   
    47    20    48 1   
    48    20    49 1   
    49    20    50 1   
    50    21    51 1   
    51    21    52 1   
    52    21    53 1   
@<TRIPOS>SUBSTRUCTURE
     1 FQF         1 TEMP              0 ****  ****    0 ROOT
