@<TRIPOS>MOLECULE
FQG
   59    62     1     0     0
SMALL
No Charge or Current Charge


@<TRIPOS>ATOM
      1 C1           4.8200     0.9420     0.6650 c          1 FQG       0.534600
      2 N1           5.8020    -0.0140     0.8460 ns         1 FQG      -0.487900
      3 O1           5.0560     2.1430     0.7450 o          1 FQG      -0.601100
      4 C2          -0.7540     1.7340    -0.4240 c          1 FQG       0.631700
      5 O2          -0.1880     2.8030    -0.2510 o          1 FQG      -0.526100
      6 C3          -5.0580     1.3070    -0.9280 ca         1 FQG       0.175000
      7 N3          -6.0250    -0.8490     1.0440 nb         1 FQG      -0.645000
      8 C4          -4.4060     2.4620    -1.3830 ca         1 FQG      -0.116000
      9 N4           1.8810    -0.9720    -0.0020 na         1 FQG       0.202000
     10 C5          -3.0220     2.6230    -1.2260 ca         1 FQG       0.175000
     11 N5           3.2240    -0.9500     0.2880 nc         1 FQG      -0.503800
     12 C6          -2.2520     1.6080    -0.6080 ca         1 FQG      -0.155600
     13 C7          -2.9230     0.4470    -0.1460 ca         1 FQG      -0.067000
     14 C8          -4.3220     0.2760    -0.2890 cp         1 FQG      -0.138500
     15 C9          -4.9560    -0.9780     0.2240 cp         1 FQG       0.394500
     16 C10         -6.5860    -1.9630     1.5650 ca         1 FQG       0.343900
     17 C11         -6.0990    -3.2550     1.3040 ca         1 FQG      -0.156000
     18 C12         -4.9810    -3.4080     0.4690 ca         1 FQG      -0.075000
     19 C13         -4.4020    -2.2480    -0.0700 ca         1 FQG      -0.150000
     20 C14          1.2010    -2.1880    -0.1090 ca         1 FQG      -0.000200
     21 C15          1.2590     0.2650    -0.0960 cc         1 FQG      -0.011400
     22 C16          0.1100    -2.4710     0.7400 ca         1 FQG      -0.102000
     23 C17          1.5860    -3.1350    -1.0790 ca         1 FQG      -0.102000
     24 C18          3.4620     0.3610     0.3680 cd         1 FQG       0.204500
     25 C19          2.2860     1.1310     0.1430 cd         1 FQG      -0.158000
     26 C20         -0.5940    -3.6820     0.6110 ca         1 FQG      -0.105000
     27 C21          0.8830    -4.3470    -1.2050 ca         1 FQG      -0.105000
     28 C22         -0.2080    -4.6190    -0.3620 ca         1 FQG      -0.104000
     29 C23          7.2310     0.2600     1.0710 c3         1 FQG       0.073000
     30 C24          8.1160     0.0960    -0.2040 c3         1 FQG       0.162000
     31 C25          9.6090     0.2800     0.1540 c3         1 FQG      -0.101100
     32 C26          7.7050     1.0860    -1.3190 c3         1 FQG      -0.101100
     33 H22          5.5030    -0.9770     0.7280 hn         1 FQG       0.338500
     34 H21         -0.6710    -0.2710    -0.5790 hn         1 FQG       0.333500
     35 H23          8.3410    -1.8490    -0.0670 ho         1 FQG       0.439000
     36 H10         -4.9810     3.2370    -1.8820 ha         1 FQG       0.151000
     37 H9          -2.3710    -0.3340     0.3720 ha         1 FQG       0.125000
     38 H12         -7.4480    -1.8160     2.2140 h4         1 FQG       0.026100
     39 H5          -6.5850    -4.1200     1.7480 ha         1 FQG       0.128000
     40 H4          -4.5740    -4.3930     0.2490 ha         1 FQG       0.121000
     41 H8          -3.5340    -2.3240    -0.7190 ha         1 FQG       0.125000
     42 H6          -0.1900    -1.7550     1.5030 ha         1 FQG       0.135500
     43 H7           2.4260    -2.9280    -1.7390 ha         1 FQG       0.135500
     44 H11          2.2380     2.2140     0.1570 ha         1 FQG       0.184000
     45 H2          -1.4360    -3.8940     1.2670 ha         1 FQG       0.123000
     46 H3           1.1830    -5.0740    -1.9580 ha         1 FQG       0.123000
     47 H1          -0.7520    -5.5560    -0.4610 ha         1 FQG       0.119000
     48 H19          7.3480     1.2800     1.4620 h1         1 FQG       0.058700
     49 H20          7.5880    -0.4250     1.8510 h1         1 FQG       0.058700
     50 H15          9.9210    -0.4320     0.9270 hc         1 FQG       0.045367
     51 H14         10.2460     0.1290    -0.7260 hc         1 FQG       0.045367
     52 H13          9.7930     1.2930     0.5340 hc         1 FQG       0.045367
     53 H18          7.7770     2.1210    -0.9650 hc         1 FQG       0.045367
     54 H16          8.3580     0.9810    -2.1950 hc         1 FQG       0.045367
     55 H17          6.6740     0.9090    -1.6480 hc         1 FQG       0.045367
     56 N2          -0.0800     0.5270    -0.3820 ns         1 FQG      -0.407100
     57 O3           7.9520    -1.2310    -0.7230 oh         1 FQG      -0.662000
     58 Cl1         -2.3080     4.0920    -1.8970 cl         1 FQG      -0.151000
     59 Cl2         -6.7890     1.1790    -1.2450 cl         1 FQG      -0.160000
@<TRIPOS>BOND
     1     1     2 1   
     2     1     3 2   
     3     1    24 1   
     4     2    29 1   
     5     2    33 1   
     6     4     5 2   
     7     4    12 1   
     8     4    56 1   
     9     6     8 ar  
    10     6    14 ar  
    11     6    59 1   
    12     7    15 ar  
    13     7    16 ar  
    14     8    10 ar  
    15     8    36 1   
    16     9    11 1   
    17     9    20 1   
    18     9    21 1   
    19    10    12 ar  
    20    10    58 1   
    21    11    24 2   
    22    12    13 ar  
    23    13    14 ar  
    24    13    37 1   
    25    14    15 1   
    26    15    19 ar  
    27    16    17 ar  
    28    16    38 1   
    29    17    18 ar  
    30    17    39 1   
    31    18    19 ar  
    32    18    40 1   
    33    19    41 1   
    34    20    22 ar  
    35    20    23 ar  
    36    21    25 2   
    37    21    56 1   
    38    22    26 ar  
    39    22    42 1   
    40    23    27 ar  
    41    23    43 1   
    42    24    25 1   
    43    25    44 1   
    44    26    28 ar  
    45    26    45 1   
    46    27    28 ar  
    47    27    46 1   
    48    28    47 1   
    49    29    30 1   
    50    29    48 1   
    51    29    49 1   
    52    30    31 1   
    53    30    32 1   
    54    30    57 1   
    55    31    50 1   
    56    31    51 1   
    57    31    52 1   
    58    32    53 1   
    59    32    54 1   
    60    32    55 1   
    61    34    56 1   
    62    35    57 1   
@<TRIPOS>SUBSTRUCTURE
     1 FQG         1 TEMP              0 ****  ****    0 ROOT
