@<TRIPOS>MOLECULE
FQG
   59    62     1     0     0
SMALL
bcc


@<TRIPOS>ATOM
      1 C1           4.7900     1.2240     0.4560 c          1 FQG       0.601600
      2 N1           5.6990     0.2700     0.6960 ns         1 FQG      -0.554900
      3 O1           5.0250     2.4250     0.4310 o          1 FQG      -0.601100
      4 C2          -0.8520     1.7960    -0.0590 c          1 FQG       0.698700
      5 O2          -0.4110     2.7760     0.4970 o          1 FQG      -0.526100
      6 C3          -5.0260     1.1870    -0.7580 ca         1 FQG       0.083400
      7 N3          -5.8720    -1.1570     1.0080 nb         1 FQG      -0.645000
      8 C4          -4.4510     2.3980    -1.1130 ca         1 FQG      -0.134000
      9 N4           1.8190    -0.6230    -0.0320 na         1 FQG       0.151300
     10 C5          -3.0990     2.6070    -0.9000 ca         1 FQG       0.083400
     11 N5           3.1280    -0.5570     0.1830 nc         1 FQG      -0.503800
     12 C6          -2.3030     1.6040    -0.3550 ca         1 FQG      -0.155600
     13 C7          -2.9100     0.4010    -0.0170 ca         1 FQG      -0.085000
     14 C8          -4.2670     0.1610    -0.1990 cp         1 FQG      -0.138500
     15 C9          -4.8180    -1.1540     0.1990 cp         1 FQG       0.459800
     16 C10         -6.3560    -2.3260     1.4020 ca         1 FQG       0.409200
     17 C11         -5.8170    -3.5470     1.0170 ca         1 FQG      -0.239300
     18 C12         -4.7180    -3.5410     0.1740 ca         1 FQG      -0.093000
     19 C13         -4.2080    -2.3230    -0.2480 ca         1 FQG      -0.233300
     20 C14          1.1600    -1.8750    -0.1170 ca         1 FQG      -0.000200
     21 C15          1.2640     0.6120    -0.1630 cc         1 FQG       0.039300
     22 C16          0.0830    -2.1390     0.7200 ca         1 FQG      -0.120000
     23 C17          1.6010    -2.8190    -1.0340 ca         1 FQG      -0.120000
     24 C18          3.4120     0.7310     0.2170 cd         1 FQG       0.269800
     25 C19          2.2740     1.5260     0.0030 cd         1 FQG      -0.241300
     26 C20         -0.5710    -3.3590     0.6210 ca         1 FQG      -0.123000
     27 C21          0.9500    -4.0410    -1.1130 ca         1 FQG      -0.123000
     28 C22         -0.1390    -4.3100    -0.2940 ca         1 FQG      -0.122000
     29 C23          7.1030     0.5110     0.9090 c3         1 FQG       0.073000
     30 C24          7.9850    -0.2370    -0.1020 c3         1 FQG       0.138800
     31 C25          9.4480     0.0350     0.2350 c3         1 FQG      -0.101100
     32 C26          7.6720     0.2000    -1.5250 c3         1 FQG      -0.101100
     33 H22          5.3880    -0.6900     0.6880 hn         1 FQG       0.338500
     34 H21         -0.5060     0.0270    -1.0240 hn         1 FQG       0.333500
     35 H23          8.0030    -1.9630     0.8140 ho         1 FQG       0.400000
     36 H10         -5.0540     3.1730    -1.5640 ha         1 FQG       0.169000
     37 H9          -2.3190    -0.3800     0.4470 ha         1 FQG       0.143000
     38 H12         -7.2150    -2.2940     2.0630 h4         1 FQG       0.026100
     39 H5          -6.2530    -4.4710     1.3690 ha         1 FQG       0.146000
     40 H4          -4.2680    -4.4670    -0.1570 ha         1 FQG       0.139000
     41 H8          -3.3650    -2.2790    -0.9240 ha         1 FQG       0.143000
     42 H6          -0.2300    -1.4130     1.4590 ha         1 FQG       0.153500
     43 H7           2.4410    -2.6010    -1.6800 ha         1 FQG       0.153500
     44 H11          2.2120     2.5980    -0.0410 ha         1 FQG       0.202000
     45 H2          -1.4090    -3.5660     1.2720 ha         1 FQG       0.141000
     46 H3           1.2920    -4.7810    -1.8240 ha         1 FQG       0.141000
     47 H1          -0.6460    -5.2630    -0.3640 ha         1 FQG       0.137000
     48 H19          7.2870     1.5830     0.8450 h1         1 FQG       0.058700
     49 H20          7.3770     0.2000     1.9230 h1         1 FQG       0.058700
     50 H15          9.6840    -0.2750     1.2550 hc         1 FQG       0.045367
     51 H14         10.1090    -0.5050    -0.4440 hc         1 FQG       0.045367
     52 H13          9.6790     1.0980     0.1530 hc         1 FQG       0.045367
     53 H18          7.8410     1.2710    -1.6400 hc         1 FQG       0.045367
     54 H16          8.3140    -0.3180    -2.2390 hc         1 FQG       0.045367
     55 H17          6.6360    -0.0070    -1.7920 hc         1 FQG       0.045367
     56 N2          -0.0830     0.7400    -0.4460 ns         1 FQG      -0.474100
     57 O3           7.7030    -1.6280    -0.0390 oh         1 FQG      -0.599800
     58 CL1         -2.4290     4.1160    -1.3910 cl         1 FQG      -0.059400
     59 CL2         -6.7010     0.9690    -1.0950 cl         1 FQG      -0.068400
@<TRIPOS>BOND
     1     1     2 1   
     2     1     3 2   
     3     1    24 1   
     4     2    29 1   
     5     2    33 1   
     6     4     5 2   
     7     4    12 1   
     8     4    56 1   
     9     6     8 ar  
    10     6    14 ar  
    11     6    59 1   
    12     7    15 ar  
    13     7    16 ar  
    14     8    10 ar  
    15     8    36 1   
    16     9    11 1   
    17     9    20 1   
    18     9    21 1   
    19    10    12 ar  
    20    10    58 1   
    21    11    24 2   
    22    12    13 ar  
    23    13    14 ar  
    24    13    37 1   
    25    14    15 1   
    26    15    19 ar  
    27    16    17 ar  
    28    16    38 1   
    29    17    18 ar  
    30    17    39 1   
    31    18    19 ar  
    32    18    40 1   
    33    19    41 1   
    34    20    22 ar  
    35    20    23 ar  
    36    21    25 2   
    37    21    56 1   
    38    22    26 ar  
    39    22    42 1   
    40    23    27 ar  
    41    23    43 1   
    42    24    25 1   
    43    25    44 1   
    44    26    28 ar  
    45    26    45 1   
    46    27    28 ar  
    47    27    46 1   
    48    28    47 1   
    49    29    30 1   
    50    29    48 1   
    51    29    49 1   
    52    30    31 1   
    53    30    32 1   
    54    30    57 1   
    55    31    50 1   
    56    31    51 1   
    57    31    52 1   
    58    32    53 1   
    59    32    54 1   
    60    32    55 1   
    61    34    56 1   
    62    35    57 1   
@<TRIPOS>SUBSTRUCTURE
     1 FQG         1 TEMP              0 ****  ****    0 ROOT
