@<TRIPOS>MOLECULE
FQH
   57    61     1     0     0
SMALL
No Charge or Current Charge


@<TRIPOS>ATOM
      1 N1          -4.6320    -0.0930     0.9510 na         1 FQH       0.110300
      2 C2           6.7470    -0.1000     0.1160 ca         1 FQH      -0.061000
      3 N3          -6.3190     1.4330     1.7670 nb         1 FQH      -0.674000
      4 C4           5.6650     0.9430    -1.7950 ca         1 FQH      -0.076000
      5 C5           6.9190     1.1280    -2.3990 ca         1 FQH      -0.117000
      6 C6           8.0880     0.7020    -1.7490 ca         1 FQH      -0.062000
      7 N4          -6.3730    -1.0650    -1.0260 nc         1 FQH      -0.578100
      8 C21         -9.0630     0.0190    -1.2290 c          1 FQH       0.572600
      9 C18         -8.1140     0.5030    -0.1970 ca         1 FQH      -0.166600
     10 C17         -8.4880     1.5060     0.7190 ca         1 FQH      -0.100000
     11 C16         -7.5650     1.9370     1.6770 ca         1 FQH       0.337900
     12 N5          -8.5530    -0.9420    -2.0270 ns         1 FQH      -0.427400
     13 C20         -7.2880    -1.4440    -1.9220 cd         1 FQH       0.501800
     14 C19         -6.8120    -0.0500    -0.1290 ca         1 FQH       0.149400
     15 C15         -5.9300     0.4550     0.8930 ca         1 FQH       0.478500
     16 C13         -3.6260     0.2450     0.0550 cc         1 FQH      -0.128000
     17 N2          -4.2740    -0.9710     1.9570 nc         1 FQH      -0.479800
     18 C14         -3.0080    -1.1960     1.6580 cd         1 FQH       0.243900
     19 C12         -2.5610    -0.4830     0.5140 cd         1 FQH      -0.204300
     20 C11         -1.1700    -0.5290    -0.0680 c3         1 FQH       0.008900
     21 C10         -0.1290     0.1700     0.8380 c3         1 FQH       0.167800
     22 N            1.2330     0.3070     0.2560 n3         1 FQH      -0.721600
     23 C9           2.0950     1.1950     1.0850 c6         1 FQH       0.166300
     24 C8           3.4710     1.4450     0.4210 c6         1 FQH      -0.069900
     25 C22          1.9050    -1.0010    -0.0060 c6         1 FQH       0.166300
     26 C23          3.2790    -0.8120    -0.6960 c6         1 FQH      -0.069900
     27 C7           4.2040     0.1100     0.1390 c6         1 FQH      -0.020400
     28 C3           5.5700     0.3250    -0.5320 ca         1 FQH      -0.076300
     29 C1           8.0140     0.0900    -0.4790 ca         1 FQH      -0.196300
     30 C            9.2820    -0.3890     0.2370 c3         1 FQH       0.356300
     31 F            9.1970    -0.2430     1.5800 f          1 FQH      -0.114667
     32 F1           9.5160    -1.6990    -0.0030 f          1 FQH      -0.114667
     33 F2          10.3870     0.2880    -0.1530 f          1 FQH      -0.114667
     34 H2           4.7700     1.2780    -2.3130 ha         1 FQH       0.121000
     35 H3           6.9840     1.6010    -3.3760 ha         1 FQH       0.120000
     36 H4           9.0490     0.8490    -2.2380 ha         1 FQH       0.129000
     37 H5          -9.4790     1.9520     0.6950 ha         1 FQH       0.151000
     38 H6          -7.8310     2.7130     2.3950 h4         1 FQH       0.033100
     39 H7          -9.1720    -1.2960    -2.7420 hn         1 FQH       0.336500
     40 H8          -7.0800    -2.2080    -2.6600 h5         1 FQH       0.055800
     41 H9          -3.7540     0.9260    -0.7770 h4         1 FQH       0.166000
     42 H10         -2.4340    -1.8710     2.2810 h4         1 FQH       0.038100
     43 H11         -0.8830    -1.5750    -0.2250 hc         1 FQH       0.051700
     44 H12         -1.1610    -0.0490    -1.0540 hc         1 FQH       0.051700
     45 H13         -0.5210     1.1710     1.0640 h1         1 FQH       0.034200
     46 H14         -0.0750    -0.3720     1.7920 h1         1 FQH       0.034200
     47 H16          1.6020     2.1660     1.2410 h1         1 FQH       0.032450
     48 H17          2.2530     0.7510     2.0790 h1         1 FQH       0.032450
     49 H18          3.3230     2.0070    -0.5110 hc         1 FQH       0.050200
     50 H19          4.0850     2.0790     1.0750 hc         1 FQH       0.050200
     51 H20          2.0480    -1.5500     0.9360 h1         1 FQH       0.032450
     52 H21          1.2880    -1.6340    -0.6590 h1         1 FQH       0.032450
     53 H22          3.7560    -1.7910    -0.8380 hc         1 FQH       0.050200
     54 H23          3.1220    -0.3910    -1.6980 hc         1 FQH       0.050200
     55 H24          4.3680    -0.3830     1.1080 hc         1 FQH       0.051700
     56 H1           6.6770    -0.5840     1.0890 ha         1 FQH       0.127000
     57 O          -10.2030     0.4350    -1.3620 o          1 FQH      -0.519000
@<TRIPOS>BOND
     1     1    15 1   
     2     1    16 1   
     3     1    17 1   
     4     2    28 ar  
     5     2    29 ar  
     6     2    56 1   
     7     3    11 ar  
     8     3    15 ar  
     9     4     5 ar  
    10     4    28 ar  
    11     4    34 1   
    12     5     6 ar  
    13     5    35 1   
    14     6    29 ar  
    15     6    36 1   
    16     7    13 2   
    17     7    14 1   
    18     8     9 1   
    19     8    12 1   
    20     8    57 2   
    21     9    10 ar  
    22     9    14 ar  
    23    10    11 ar  
    24    10    37 1   
    25    11    38 1   
    26    12    13 1   
    27    12    39 1   
    28    13    40 1   
    29    14    15 ar  
    30    16    19 2   
    31    16    41 1   
    32    17    18 2   
    33    18    19 1   
    34    18    42 1   
    35    19    20 1   
    36    20    21 1   
    37    20    43 1   
    38    20    44 1   
    39    21    22 1   
    40    21    45 1   
    41    21    46 1   
    42    22    23 1   
    43    22    25 1   
    44    23    24 1   
    45    23    47 1   
    46    23    48 1   
    47    24    27 1   
    48    24    49 1   
    49    24    50 1   
    50    25    26 1   
    51    25    51 1   
    52    25    52 1   
    53    26    27 1   
    54    26    53 1   
    55    26    54 1   
    56    27    28 1   
    57    27    55 1   
    58    29    30 1   
    59    30    31 1   
    60    30    32 1   
    61    30    33 1   
@<TRIPOS>SUBSTRUCTURE
     1 FQH         1 TEMP              0 ****  ****    0 ROOT
