@<TRIPOS>MOLECULE
FQH
   57    61     1     0     0
SMALL
bcc


@<TRIPOS>ATOM
      1 N1          -4.5400    -0.0410     0.0240 na         1 FQH       0.059600
      2 C2           6.7080    -0.2100     0.3080 ca         1 FQH      -0.079000
      3 N3          -5.8130     1.8470     0.3020 nb         1 FQH      -0.674000
      4 C4           5.8410     1.3460    -1.2860 ca         1 FQH      -0.094000
      5 C5           7.1310     1.6550    -1.6900 ca         1 FQH      -0.135000
      6 C6           8.2210     1.0340    -1.0990 ca         1 FQH      -0.080000
      7 N4          -6.9360    -1.5540    -0.2980 nc         1 FQH      -0.578100
      8 C21         -9.4570    -0.2660     0.0920 c          1 FQH       0.715100
      9 C18         -8.1930     0.4740     0.1740 ca         1 FQH      -0.166600
     10 C17         -8.1900     1.8510     0.3850 ca         1 FQH      -0.183300
     11 C16         -6.9750     2.4940     0.4130 ca         1 FQH       0.403200
     12 N5          -9.2730    -1.5980    -0.1870 ns         1 FQH      -0.494400
     13 C20         -8.0560    -2.1690    -0.3830 cd         1 FQH       0.501800
     14 C19         -6.9890    -0.2190     0.0060 ca         1 FQH       0.084100
     15 C15         -5.8080     0.5500     0.1240 ca         1 FQH       0.543800
     16 C13         -3.4530     0.5100    -0.5780 cc         1 FQH      -0.095300
     17 N2          -4.2520    -1.1970     0.6280 nc         1 FQH      -0.479800
     18 C14         -2.9750    -1.3930     0.3940 cd         1 FQH       0.309200
     19 C12         -2.4070    -0.3490    -0.3740 cd         1 FQH      -0.269600
     20 C11         -0.9880    -0.2020    -0.8130 c3         1 FQH       0.008900
     21 C10         -0.0710     0.0660     0.3820 c3         1 FQH       0.167800
     22 N            1.3080     0.3180     0.0090 n3         1 FQH      -0.721600
     23 C9           2.0470     0.8800     1.1260 c6         1 FQH       0.166300
     24 C8           3.4610     1.2680     0.7230 c6         1 FQH      -0.069900
     25 C22          1.9720    -0.8670    -0.5050 c6         1 FQH       0.166300
     26 C23          3.3850    -0.5530    -0.9720 c6         1 FQH      -0.069900
     27 C7           4.2120     0.0620     0.1580 c6         1 FQH      -0.020400
     28 C3           5.6100     0.4070    -0.2810 ca         1 FQH      -0.076300
     29 C1           8.0030     0.1020    -0.0920 ca         1 FQH      -0.196300
     30 C            9.1640    -0.6150     0.5220 c3         1 FQH       0.720200
     31 F            8.9180    -1.0060     1.7770 f          1 FQH      -0.235967
     32 F1           9.4830    -1.7220    -0.1690 f          1 FQH      -0.235967
     33 F2          10.2670     0.1430     0.5580 f          1 FQH      -0.235967
     34 H2           5.0060     1.8470    -1.7610 ha         1 FQH       0.139000
     35 H3           7.2890     2.3850    -2.4730 ha         1 FQH       0.138000
     36 H4           9.2210     1.2840    -1.4260 ha         1 FQH       0.147000
     37 H5          -9.1120     2.4000     0.5110 ha         1 FQH       0.169000
     38 H6          -6.9160     3.5670     0.5450 h4         1 FQH       0.033100
     39 H7         -10.0950    -2.1810    -0.2730 hn         1 FQH       0.336500
     40 H8          -8.0790    -3.2220    -0.6310 h5         1 FQH       0.055800
     41 H9          -3.5110     1.4460    -1.1100 h4         1 FQH       0.184000
     42 H10         -2.4830    -2.2730     0.7820 h4         1 FQH       0.038100
     43 H11         -0.6770    -1.1070    -1.3390 hc         1 FQH       0.051700
     44 H12         -0.8990     0.6230    -1.5230 hc         1 FQH       0.051700
     45 H13         -0.4460     0.9530     0.8980 h1         1 FQH       0.034200
     46 H14         -0.1530    -0.7690     1.1000 h1         1 FQH       0.034200
     47 H16          1.5170     1.7660     1.4840 h1         1 FQH       0.032450
     48 H17          2.0930     0.1740     1.9750 h1         1 FQH       0.032450
     49 H18          3.4150     2.0630    -0.0270 hc         1 FQH       0.050200
     50 H19          3.9890     1.6710     1.5900 hc         1 FQH       0.050200
     51 H20          2.0080    -1.6670     0.2580 h1         1 FQH       0.032450
     52 H21          1.4060    -1.2640    -1.3490 h1         1 FQH       0.032450
     53 H22          3.8590    -1.4700    -1.3300 hc         1 FQH       0.050200
     54 H23          3.3400     0.1380    -1.8180 hc         1 FQH       0.050200
     55 H24          4.2880    -0.6860     0.9570 hc         1 FQH       0.051700
     56 H1           6.5370    -0.9410     1.0890 ha         1 FQH       0.145000
     57 O          -10.5580     0.2200     0.2480 o          1 FQH      -0.594500
@<TRIPOS>BOND
     1     1    15 1   
     2     1    16 1   
     3     1    17 1   
     4     2    28 ar  
     5     2    29 ar  
     6     2    56 1   
     7     3    11 ar  
     8     3    15 ar  
     9     4     5 ar  
    10     4    28 ar  
    11     4    34 1   
    12     5     6 ar  
    13     5    35 1   
    14     6    29 ar  
    15     6    36 1   
    16     7    13 2   
    17     7    14 1   
    18     8     9 1   
    19     8    12 1   
    20     8    57 2   
    21     9    10 ar  
    22     9    14 ar  
    23    10    11 ar  
    24    10    37 1   
    25    11    38 1   
    26    12    13 1   
    27    12    39 1   
    28    13    40 1   
    29    14    15 ar  
    30    16    19 2   
    31    16    41 1   
    32    17    18 2   
    33    18    19 1   
    34    18    42 1   
    35    19    20 1   
    36    20    21 1   
    37    20    43 1   
    38    20    44 1   
    39    21    22 1   
    40    21    45 1   
    41    21    46 1   
    42    22    23 1   
    43    22    25 1   
    44    23    24 1   
    45    23    47 1   
    46    23    48 1   
    47    24    27 1   
    48    24    49 1   
    49    24    50 1   
    50    25    26 1   
    51    25    51 1   
    52    25    52 1   
    53    26    27 1   
    54    26    53 1   
    55    26    54 1   
    56    27    28 1   
    57    27    55 1   
    58    29    30 1   
    59    30    31 1   
    60    30    32 1   
    61    30    33 1   
@<TRIPOS>SUBSTRUCTURE
     1 FQH         1 TEMP              0 ****  ****    0 ROOT
