@<TRIPOS>MOLECULE
FQI
   13    13     1     0     0
SMALL
abcg2


@<TRIPOS>ATOM
      1 CL         126.2460   -10.1820   166.3050 cl         1 FQI      -0.142000
      2 C4         125.9590   -11.7100   165.5700 cc         1 FQI      -0.036000
      3 C2         125.1090   -13.8080   165.1630 cd         1 FQI      -0.093000
      4 O          127.1030   -14.2610   162.1210 o          1 FQI      -0.613100
      5 N          125.6470   -15.7780   162.9600 nt         1 FQI      -0.595000
      6 C1         125.9660   -13.6800   164.0990 cc         1 FQI      -0.297600
      7 C3         125.1000   -12.6770   166.0140 cd         1 FQI      -0.133000
      8 S          126.7850   -12.1530   164.1250 ss         1 FQI       0.353000
      9 H3         124.4960   -12.5790   166.9040 ha         1 FQI       0.148000
     10 H2         124.4960   -14.6810   165.3410 ha         1 FQI       0.130000
     11 HN1        125.8480   -16.4230   162.2130 hn         1 FQI       0.319500
     12 HN2        124.9890   -16.0590   163.6680 hn         1 FQI       0.319500
     13 C          126.2840   -14.5930   162.9840 c          1 FQI       0.640700
@<TRIPOS>BOND
     1     1     2 1   
     2     2     7 2   
     3     2     8 1   
     4     3     6 2   
     5     3     7 1   
     6     3    10 1   
     7     4    13 2   
     8     5    11 1   
     9     5    12 1   
    10     5    13 1   
    11     6     8 1   
    12     6    13 1   
    13     7     9 1   
@<TRIPOS>SUBSTRUCTURE
     1 FQI         1 TEMP              0 ****  ****    0 ROOT
