@<TRIPOS>MOLECULE
FQI
   13    13     1     0     0
SMALL
No Charge or Current Charge


@<TRIPOS>ATOM
      1 Cl         126.1610   -10.1750   166.4320 cl         1 FQI      -0.142000
      2 C4         125.9520   -11.6840   165.5960 cc         1 FQI      -0.036000
      3 C2         125.1500   -13.8160   165.1000 cd         1 FQI      -0.093000
      4 O          127.0850   -14.3860   162.0540 o          1 FQI      -0.613100
      5 N          125.6270   -15.7630   163.0090 nt         1 FQI      -0.595000
      6 C1         126.0230   -13.6420   164.0450 cc         1 FQI      -0.297600
      7 C3         125.1130   -12.6990   165.9800 cd         1 FQI      -0.133000
      8 S          126.8270   -12.0770   164.1180 ss         1 FQI       0.353000
      9 H3         124.4860   -12.6510   166.8650 ha         1 FQI       0.148000
     10 H2         124.5450   -14.7050   165.2600 ha         1 FQI       0.130000
     11 HN1        125.7820   -16.4500   162.2880 hn         1 FQI       0.319500
     12 HN2        124.9770   -15.9390   163.7580 hn         1 FQI       0.319500
     13 C          126.3000   -14.5970   162.9610 c          1 FQI       0.640700
@<TRIPOS>BOND
     1     1     2 1   
     2     2     7 2   
     3     2     8 1   
     4     3     6 2   
     5     3     7 1   
     6     3    10 1   
     7     4    13 2   
     8     5    11 1   
     9     5    12 1   
    10     5    13 1   
    11     6     8 1   
    12     6    13 1   
    13     7     9 1   
@<TRIPOS>SUBSTRUCTURE
     1 FQI         1 TEMP              0 ****  ****    0 ROOT
