@<TRIPOS>MOLECULE
FQJ
   36    38     1     0     0
SMALL
No Charge or Current Charge


@<TRIPOS>ATOM
      1 N3          -4.2420     1.2590    -0.0380 nc         1 FQJ      -0.512800
      2 C4          -2.2780     2.4310    -0.0070 cd         1 FQJ      -0.231000
      3 C6           0.6100     1.1970    -0.0390 c          1 FQJ       0.628700
      4 C7           1.8020     0.2690     0.0810 ca         1 FQJ      -0.151600
      5 C8           3.0740     0.6090    -0.4540 ca         1 FQJ       0.168000
      6 C10          1.6670    -0.9730     0.7550 ca         1 FQJ      -0.074000
      7 C20         -3.9500    -1.6360     0.8710 ca         1 FQJ      -0.109500
      8 C21         -4.0710    -3.0350     0.8010 ca         1 FQJ      -0.101500
      9 C22         -2.8060    -3.0420    -1.2780 ca         1 FQJ      -0.101500
     10 C1          -1.8990     1.1200    -0.0450 cc         1 FQJ       0.012600
     11 N2          -3.1230     0.4580    -0.0560 na         1 FQJ       0.180000
     12 N5          -0.6210     0.5650    -0.0440 ns         1 FQJ      -0.399100
     13 C9          -3.6950     2.4620    -0.0040 cd         1 FQJ       0.273300
     14 C11          4.1610    -0.2710    -0.3160 ca         1 FQJ      -0.108000
     15 C12         -3.2530    -0.9310    -0.1320 ca         1 FQJ       0.010800
     16 O13          0.7180     2.4150    -0.0630 o          1 FQJ      -0.535100
     17 C14          4.0070    -1.4910     0.3530 ca         1 FQJ       0.143000
     18 Cl2          3.3650     2.0910    -1.3690 cl         1 FQJ      -0.157000
     19 C16          2.7620    -1.8430     0.8880 ca         1 FQJ      -0.109000
     20 Cl1          5.3770    -2.5820     0.5190 cl         1 FQJ      -0.179000
     21 C18         -4.5580     3.6900     0.0310 c3         1 FQJ      -0.121400
     22 C19         -2.6850    -1.6430    -1.2090 ca         1 FQJ      -0.109500
     23 C23         -3.4980    -3.7380    -0.2720 ca         1 FQJ      -0.108000
     24 H24         -1.6320     3.3000     0.0200 ha         1 FQJ       0.168000
     25 H26          0.7220    -1.2690     1.2080 ha         1 FQJ       0.128000
     26 H33         -4.3940    -1.0970     1.7050 ha         1 FQJ       0.133500
     27 H34         -4.6090    -3.5740     1.5790 ha         1 FQJ       0.120500
     28 H35         -2.3660    -3.5860    -2.1110 ha         1 FQJ       0.120500
     29 H25         -0.5570    -0.4450    -0.0490 hn         1 FQJ       0.333500
     30 H27          5.1270    -0.0060    -0.7360 ha         1 FQJ       0.150000
     31 H28          2.6470    -2.7890     1.4120 ha         1 FQJ       0.139000
     32 H31         -3.9470     4.6000     0.0610 hc         1 FQJ       0.049033
     33 H30         -5.1980     3.7450    -0.8570 hc         1 FQJ       0.049033
     34 H29         -5.2040     3.6900     0.9170 hc         1 FQJ       0.049033
     35 H32         -2.1550    -1.1100    -1.9970 ha         1 FQJ       0.133500
     36 H36         -3.5920    -4.8200    -0.3260 ha         1 FQJ       0.119000
@<TRIPOS>BOND
     1     1    11 1   
     2     1    13 2   
     3     2    10 2   
     4     2    13 1   
     5     2    24 1   
     6     3     4 1   
     7     3    12 1   
     8     3    16 2   
     9     4     5 ar  
    10     4     6 ar  
    11     5    14 ar  
    12     5    18 1   
    13     6    19 ar  
    14     6    25 1   
    15     7     8 ar  
    16     7    15 ar  
    17     7    26 1   
    18     8    23 ar  
    19     8    27 1   
    20     9    22 ar  
    21     9    23 ar  
    22     9    28 1   
    23    10    11 1   
    24    10    12 1   
    25    11    15 1   
    26    12    29 1   
    27    13    21 1   
    28    14    17 ar  
    29    14    30 1   
    30    15    22 ar  
    31    17    19 ar  
    32    17    20 1   
    33    19    31 1   
    34    21    32 1   
    35    21    33 1   
    36    21    34 1   
    37    22    35 1   
    38    23    36 1   
@<TRIPOS>SUBSTRUCTURE
     1 FQJ         1 TEMP              0 ****  ****    0 ROOT
