@<TRIPOS>MOLECULE
FQJ
   36    38     1     0     0
SMALL
bcc


@<TRIPOS>ATOM
      1 N3          -4.0890     1.2350    -0.0250 nc         1 FQJ      -0.512800
      2 C4          -2.2190     2.4730     0.1930 cd         1 FQJ      -0.314300
      3 C6           0.5710     1.1460    -0.0320 c          1 FQJ       0.695700
      4 C7           1.7380     0.2260     0.1140 ca         1 FQJ      -0.151600
      5 C8           2.8070     0.2470    -0.7790 ca         1 FQJ       0.076400
      6 C10          1.8040    -0.6420     1.2010 ca         1 FQJ      -0.092000
      7 C20         -4.0160    -1.6460     0.5680 ca         1 FQJ      -0.127500
      8 C21         -4.1800    -3.0110     0.3960 ca         1 FQJ      -0.119500
      9 C22         -2.6250    -2.9810    -1.4360 ca         1 FQJ      -0.119500
     10 C1          -1.8570     1.1560     0.0380 cc         1 FQJ       0.063300
     11 N2          -3.0050     0.4450    -0.1040 na         1 FQJ       0.129300
     12 N5          -0.6310     0.5170     0.0570 ns         1 FQJ      -0.466100
     13 C9          -3.6290     2.4560     0.1460 cd         1 FQJ       0.338600
     14 C11          3.9090    -0.5720    -0.5990 ca         1 FQJ      -0.126000
     15 C12         -3.1590    -0.9490    -0.2760 ca         1 FQJ       0.010800
     16 O13          0.6950     2.3400    -0.1980 o          1 FQJ      -0.535100
     17 C14          3.9460    -1.4130     0.5020 ca         1 FQJ       0.051400
     18 CL2          2.7750     1.2530    -2.1800 cl         1 FQJ      -0.065400
     19 C16          2.9010    -1.4600     1.4090 ca         1 FQJ      -0.127000
     20 CL1          5.3240    -2.4250     0.7350 cl         1 FQJ      -0.087400
     21 C18         -4.5500     3.6200     0.2570 c3         1 FQJ      -0.121400
     22 C19         -2.4710    -1.6090    -1.2880 ca         1 FQJ      -0.127500
     23 C23         -3.4800    -3.6830    -0.5990 ca         1 FQJ      -0.126000
     24 H24         -1.5780     3.3240     0.3360 ha         1 FQJ       0.186000
     25 H26          0.9930    -0.6680     1.9180 ha         1 FQJ       0.146000
     26 H33         -4.5470    -1.1210     1.3510 ha         1 FQJ       0.151500
     27 H34         -4.8500    -3.5540     1.0490 ha         1 FQJ       0.138500
     28 H35         -2.0880    -3.4950    -2.2210 ha         1 FQJ       0.138500
     29 H25         -0.6310    -0.4900     0.1470 hn         1 FQJ       0.333500
     30 H27          4.7250    -0.5540    -1.3080 ha         1 FQJ       0.168000
     31 H28          2.9370    -2.1180     2.2660 ha         1 FQJ       0.157000
     32 H31         -4.3920     4.3260    -0.5590 hc         1 FQJ       0.049033
     33 H30         -5.5890     3.2960     0.2280 hc         1 FQJ       0.049033
     34 H29         -4.3890     4.1630     1.1890 hc         1 FQJ       0.049033
     35 H32         -1.8380    -1.0590    -1.9730 ha         1 FQJ       0.151500
     36 H36         -3.6060    -4.7500    -0.7240 ha         1 FQJ       0.137000
@<TRIPOS>BOND
     1     1    11 1   
     2     1    13 2   
     3     2    10 2   
     4     2    13 1   
     5     2    24 1   
     6     3     4 1   
     7     3    12 1   
     8     3    16 2   
     9     4     5 ar  
    10     4     6 ar  
    11     5    14 ar  
    12     5    18 1   
    13     6    19 ar  
    14     6    25 1   
    15     7     8 ar  
    16     7    15 ar  
    17     7    26 1   
    18     8    23 ar  
    19     8    27 1   
    20     9    22 ar  
    21     9    23 ar  
    22     9    28 1   
    23    10    11 1   
    24    10    12 1   
    25    11    15 1   
    26    12    29 1   
    27    13    21 1   
    28    14    17 ar  
    29    14    30 1   
    30    15    22 ar  
    31    17    19 ar  
    32    17    20 1   
    33    19    31 1   
    34    21    32 1   
    35    21    33 1   
    36    21    34 1   
    37    22    35 1   
    38    23    36 1   
@<TRIPOS>SUBSTRUCTURE
     1 FQJ         1 TEMP              0 ****  ****    0 ROOT
