@<TRIPOS>MOLECULE
FQK
   51    55     1     0     0
SMALL
bcc


@<TRIPOS>ATOM
      1 C1          -4.6850     2.3600     0.3310 ca         1 FQK       0.401200
      2 C2          -3.1060     0.7110     0.2660 ca         1 FQK       0.542800
      3 C3          -4.0720    -0.2970     0.0420 ca         1 FQK       0.084100
      4 C4          -5.4070     0.1210     0.0280 ca         1 FQK      -0.168600
      5 C5          -6.4610    -0.8770    -0.1820 c          1 FQK       0.716100
      6 C6          -4.6350    -2.4370    -0.3910 cc         1 FQK       0.501800
      7 C7           0.0120    -0.5620     0.9900 cc         1 FQK       0.314200
      8 C8           0.4400     0.4910     0.1470 cc         1 FQK      -0.259600
      9 C10          1.8360     0.8680    -0.2280 c6         1 FQK       0.023600
     10 C11          2.5980    -0.2940    -0.8660 c6         1 FQK      -0.070400
     11 C13          4.0630     1.7100     0.5770 c6         1 FQK       0.168800
     12 C14          2.6310     1.3870     0.9720 c6         1 FQK      -0.070400
     13 O           -7.6510    -0.6400    -0.1910 o          1 FQK      -0.594500
     14 C           -5.7220     1.4690     0.1810 ca         1 FQK      -0.181300
     15 N1          -5.9600    -2.1410    -0.3790 ns         1 FQK      -0.494400
     16 N2          -3.6930    -1.5920    -0.1900 nd         1 FQK      -0.578100
     17 N           -3.4060     1.9790     0.3860 nb         1 FQK      -0.669000
     18 N3          -1.7420     0.3960     0.3380 na         1 FQK       0.059600
     19 C9          -0.7280     1.0910    -0.2390 cd         1 FQK      -0.100300
     20 N4          -1.2970    -0.6100     1.0970 nd         1 FQK      -0.484800
     21 N5           4.7300     0.5570     0.0030 n3         1 FQK      -0.719600
     22 C12          4.0340     0.0950    -1.1830 c6         1 FQK       0.168800
     23 C15          6.1350     0.8260    -0.2400 c3         1 FQK       0.183800
     24 H1          -4.8730     3.4210     0.4280 h4         1 FQK       0.033100
     25 H2          -4.3990    -3.4750    -0.5910 h5         1 FQK       0.055800
     26 H3           0.6200    -1.2790     1.5230 h4         1 FQK       0.040100
     27 H4           1.7800     1.6780    -0.9660 hc         1 FQK       0.044700
     28 H5           2.6020    -1.1510    -0.1860 hc         1 FQK       0.049700
     29 H6           2.0960    -0.6140    -1.7820 hc         1 FQK       0.049700
     30 H7           4.0590     2.5660    -0.1250 h1         1 FQK       0.028450
     31 H8           4.6210     2.0330     1.4600 h1         1 FQK       0.028450
     32 H9           2.1550     2.2800     1.3820 hc         1 FQK       0.049700
     33 H10          2.6360     0.6320     1.7650 hc         1 FQK       0.049700
     34 H11         -6.7480     1.8090     0.1690 ha         1 FQK       0.169000
     35 H12         -6.6210    -2.8900    -0.5450 hn         1 FQK       0.336500
     36 H13         -0.9120     1.9360    -0.8840 h4         1 FQK       0.180000
     37 H15          4.5520    -0.7740    -1.5910 h1         1 FQK       0.028450
     38 H16          4.0370     0.8660    -1.9760 h1         1 FQK       0.028450
     39 H17          6.2780     1.5790    -1.0370 h1         1 FQK       0.029700
     40 H19          6.5460     1.2660     0.6750 h1         1 FQK       0.029700
     41 C16          6.9310    -0.4210    -0.5600 cy         1 FQK      -0.082700
     42 C17          8.4660    -0.3650    -0.4100 cy         1 FQK      -0.082900
     43 C18          8.4140    -1.7900     0.1740 cy         1 FQK      -0.097400
     44 C19          6.9160    -1.5700     0.4630 cy         1 FQK      -0.082900
     45 H18          6.7490    -1.1920     1.4750 hc         1 FQK       0.050200
     46 H14          6.2290    -2.3980     0.2890 hc         1 FQK       0.050200
     47 H24          8.5690    -2.5470    -0.5960 hc         1 FQK       0.046200
     48 H25          9.0670    -2.0170     1.0170 hc         1 FQK       0.046200
     49 H23          9.0620    -0.2020    -1.3090 hc         1 FQK       0.050200
     50 H22          8.7660     0.3660     0.3430 hc         1 FQK       0.050200
     51 H21          6.6840    -0.8050    -1.5530 hc         1 FQK       0.051700
@<TRIPOS>BOND
     1     1    14 ar  
     2     1    17 ar  
     3     1    24 1   
     4     2     3 ar  
     5     2    17 ar  
     6     2    18 1   
     7     3     4 ar  
     8     3    16 1   
     9     4     5 1   
    10     4    14 ar  
    11     5    13 2   
    12     5    15 1   
    13     6    15 1   
    14     6    16 2   
    15     6    25 1   
    16     7     8 1   
    17     7    20 2   
    18     7    26 1   
    19     8     9 1   
    20     8    19 2   
    21     9    10 1   
    22     9    12 1   
    23     9    27 1   
    24    10    22 1   
    25    10    28 1   
    26    10    29 1   
    27    11    12 1   
    28    11    21 1   
    29    11    30 1   
    30    11    31 1   
    31    12    32 1   
    32    12    33 1   
    33    14    34 1   
    34    15    35 1   
    35    18    19 1   
    36    18    20 1   
    37    19    36 1   
    38    21    22 1   
    39    21    23 1   
    40    22    37 1   
    41    22    38 1   
    42    23    39 1   
    43    23    40 1   
    44    23    41 1   
    45    41    42 1   
    46    41    44 1   
    47    41    51 1   
    48    42    43 1   
    49    42    49 1   
    50    42    50 1   
    51    43    44 1   
    52    43    47 1   
    53    43    48 1   
    54    44    45 1   
    55    44    46 1   
@<TRIPOS>SUBSTRUCTURE
     1 FQK         1 TEMP              0 ****  ****    0 ROOT
