@<TRIPOS>MOLECULE
FQK
   51    55     1     0     0
SMALL
No Charge or Current Charge


@<TRIPOS>ATOM
      1 C1          -5.0210     2.0840     1.2900 ca         1 FQK       0.335900
      2 C2          -3.1390     0.7520     0.8800 ca         1 FQK       0.477500
      3 C3          -3.9030    -0.1410     0.0460 ca         1 FQK       0.149400
      4 C4          -5.2770     0.1420    -0.1350 ca         1 FQK      -0.168600
      5 C5          -6.1040    -0.7500    -0.9860 c          1 FQK       0.573600
      6 C6          -4.0860    -2.0210    -1.3170 cc         1 FQK       0.501800
      7 C7           0.1060    -0.0780     1.7850 cc         1 FQK       0.248900
      8 C8           0.3200     0.5600     0.5420 cc         1 FQK      -0.194300
      9 C10          1.6710     0.7820    -0.0990 c6         1 FQK       0.023600
     10 C11          2.3740    -0.5670    -0.3880 c6         1 FQK      -0.070400
     11 C13          3.9790     1.8260     0.1720 c6         1 FQK       0.168800
     12 C14          2.5750     1.6580     0.8010 c6         1 FQK      -0.070400
     13 O           -7.2950    -0.5830    -1.1980 o          1 FQK      -0.519000
     14 C           -5.8360     1.2700     0.4970 ca         1 FQK      -0.098000
     15 N1          -5.4190    -1.7840    -1.5180 ns         1 FQK      -0.427400
     16 N2          -3.2810    -1.2650    -0.5680 nd         1 FQK      -0.578100
     17 N           -3.7080     1.8400     1.4810 nb         1 FQK      -0.669000
     18 N3          -1.7720     0.4610     1.0520 na         1 FQK       0.110300
     19 C9          -0.9020     0.9280     0.0630 cd         1 FQK      -0.133000
     20 N4          -1.1620    -0.1470     2.1450 nd         1 FQK      -0.484800
     21 N5           4.6290     0.5120    -0.0920 n3         1 FQK      -0.719600
     22 C12          3.7860    -0.3400    -0.9810 c6         1 FQK       0.168800
     23 C15          6.0220     0.6750    -0.5760 c3         1 FQK       0.183800
     24 H1          -5.4300     2.9620     1.7890 h4         1 FQK       0.033100
     25 H2          -3.7360    -2.9040    -1.8370 h5         1 FQK       0.055800
     26 H3           0.8560    -0.4910     2.4460 h4         1 FQK       0.040100
     27 H4           1.5330     1.3060    -1.0560 hc         1 FQK       0.044700
     28 H5           2.4620    -1.1560     0.5350 hc         1 FQK       0.049700
     29 H6           1.7710    -1.1630    -1.0860 hc         1 FQK       0.049700
     30 H7           3.8870     2.3980    -0.7640 h1         1 FQK       0.028450
     31 H8           4.5980     2.4250     0.8560 h1         1 FQK       0.028450
     32 H9           2.1160     2.6440     0.9490 hc         1 FQK       0.049700
     33 H10          2.6780     1.2040     1.7960 hc         1 FQK       0.049700
     34 H11         -6.8880     1.5190     0.3810 ha         1 FQK       0.151000
     35 H12         -5.9450    -2.4160    -2.1040 hn         1 FQK       0.336500
     36 H13         -1.2130     1.4430    -0.8400 h4         1 FQK       0.162000
     37 H15          4.2500    -1.3250    -1.1310 h1         1 FQK       0.028450
     38 H16          3.6890     0.1260    -1.9730 h1         1 FQK       0.028450
     39 H17          6.0270     1.1130    -1.5830 h1         1 FQK       0.029700
     40 H19          6.5530     1.3760     0.0830 h1         1 FQK       0.029700
     41 C16          6.8660    -0.6150    -0.6150 cy         1 FQK      -0.082700
     42 C17          8.4260    -0.4790    -0.6980 cy         1 FQK      -0.082900
     43 C18          8.4710    -1.8450     0.0630 cy         1 FQK      -0.097400
     44 C19          7.1330    -1.3810     0.7270 cy         1 FQK      -0.082900
     45 H18          7.2570    -0.7360     1.6050 hc         1 FQK       0.050200
     46 H14          6.4180    -2.1740     0.9740 hc         1 FQK       0.050200
     47 H24          8.3800    -2.7300    -0.5790 hc         1 FQK       0.046200
     48 H25          9.3190    -1.9900     0.7410 hc         1 FQK       0.046200
     49 H23          8.8530    -0.4780    -1.7070 hc         1 FQK       0.050200
     50 H22          8.8450     0.3670    -0.1400 hc         1 FQK       0.050200
     51 H21          6.4640    -1.2590    -1.4070 hc         1 FQK       0.051700
@<TRIPOS>BOND
     1     1    14 ar  
     2     1    17 ar  
     3     1    24 1   
     4     2     3 ar  
     5     2    17 ar  
     6     2    18 1   
     7     3     4 ar  
     8     3    16 1   
     9     4     5 1   
    10     4    14 ar  
    11     5    13 2   
    12     5    15 1   
    13     6    15 1   
    14     6    16 2   
    15     6    25 1   
    16     7     8 1   
    17     7    20 2   
    18     7    26 1   
    19     8     9 1   
    20     8    19 2   
    21     9    10 1   
    22     9    12 1   
    23     9    27 1   
    24    10    22 1   
    25    10    28 1   
    26    10    29 1   
    27    11    12 1   
    28    11    21 1   
    29    11    30 1   
    30    11    31 1   
    31    12    32 1   
    32    12    33 1   
    33    14    34 1   
    34    15    35 1   
    35    18    19 1   
    36    18    20 1   
    37    19    36 1   
    38    21    22 1   
    39    21    23 1   
    40    22    37 1   
    41    22    38 1   
    42    23    39 1   
    43    23    40 1   
    44    23    41 1   
    45    41    42 1   
    46    41    44 1   
    47    41    51 1   
    48    42    43 1   
    49    42    49 1   
    50    42    50 1   
    51    43    44 1   
    52    43    47 1   
    53    43    48 1   
    54    44    45 1   
    55    44    46 1   
@<TRIPOS>SUBSTRUCTURE
     1 FQK         1 TEMP              0 ****  ****    0 ROOT
