@<TRIPOS>MOLECULE
FQL
   46    47     1     0     0
SMALL
No Charge or Current Charge


@<TRIPOS>ATOM
      1 C1           0.5060   -11.5610    45.4120 ca         1 FQL       0.089000
      2 C2          -0.5890   -10.7230    45.1350 ca         1 FQL       0.151000
      3 C3          -1.0910    -9.8760    46.1350 ca         1 FQL      -0.092000
      4 C4          -0.5170    -9.8420    47.4190 ca         1 FQL       0.194400
      5 C5           0.5760   -10.6810    47.6880 ca         1 FQL      -0.204600
      6 C6           1.0870   -11.5390    46.6880 ca         1 FQL      -0.030000
      7 N7          -1.0770    -8.9600    48.3490 nc         1 FQL      -0.616100
      8 C8          -0.4750    -8.9670    49.5450 cd         1 FQL       0.514800
      9 N9           0.6020    -9.7480    49.9270 n          1 FQL      -0.334300
     10 C10          1.1890   -10.6390    49.0360 c          1 FQL       0.576600
     11 Cl1          1.1690   -12.6380    44.1810 cl         1 FQL      -0.159000
     12 Cl2         -1.3490   -10.7140    43.5430 cl         1 FQL      -0.156000
     13 O13          2.1470   -11.3420    49.3360 o          1 FQL      -0.536000
     14 C14          1.1730    -9.5960    51.2800 c3         1 FQL       0.132200
     15 C15          2.3530    -8.6520    51.2560 c2         1 FQL      -0.247200
     16 C16          2.2740    -7.3140    51.1690 c2         1 FQL      -0.215200
     17 C17          3.4520    -6.3820    50.9990 c3         1 FQL       0.129200
     18 N18          4.0570    -6.6080    49.6880 ns         1 FQL      -0.507900
     19 C19          3.4970    -6.2080    48.4920 c          1 FQL       0.570100
     20 O20          2.4730    -5.5360    48.4510 o          1 FQL      -0.584100
     21 C21          4.2820    -6.6580    47.2130 c3         1 FQL       0.063500
     22 N22          3.7720    -7.9270    46.5480 n7         1 FQL      -0.901400
     23 C23          4.3940    -5.5100    46.1710 c3         1 FQL       0.189300
     24 O24          4.7360    -6.1490    44.9470 oh         1 FQL      -0.668000
     25 C25          5.4450    -4.4380    46.5220 c3         1 FQL      -0.097100
     26 C26          2.3320    -7.9530    46.1920 c3         1 FQL       0.153100
     27 H1          -1.9360    -9.2320    45.9110 ha         1 FQL       0.153000
     28 H2           1.9360   -12.1880    46.8950 ha         1 FQL       0.153000
     29 H3          -0.8550    -8.2960    50.3050 h5         1 FQL       0.051800
     30 H4           0.4030    -9.2120    51.9640 h1         1 FQL       0.069700
     31 H5           1.4810   -10.5770    51.6650 h1         1 FQL       0.069700
     32 H6           3.3230    -9.1540    51.2450 ha         1 FQL       0.184000
     33 H7           1.3060    -6.8100    51.1500 ha         1 FQL       0.176000
     34 H8           4.2010    -6.5700    51.7800 h1         1 FQL       0.071200
     35 H9           3.1300    -5.3350    51.0790 h1         1 FQL       0.071200
     36 H10          4.9040    -7.1610    49.6380 hn         1 FQL       0.313500
     37 H11          5.3090    -6.8530    47.5530 h1         1 FQL       0.066700
     38 H12          3.9410    -8.7200    47.1870 hn         1 FQL       0.431000
     39 H14          3.4130    -5.0250    46.0670 h1         1 FQL       0.054700
     40 H15          4.4490    -7.0780    45.1670 ho         1 FQL       0.469000
     41 H16          5.1940    -3.9500    47.4710 hc         1 FQL       0.044367
     42 H17          6.4430    -4.8830    46.6170 hc         1 FQL       0.044367
     43 H18          5.4830    -3.6680    45.7430 hc         1 FQL       0.044367
     44 H19          2.0790    -8.8900    45.6780 h1         1 FQL       0.041033
     45 H20          1.7010    -7.8820    47.0880 h1         1 FQL       0.041033
     46 H21          2.0700    -7.1220    45.5230 h1         1 FQL       0.041033
@<TRIPOS>BOND
     1     1     2 ar  
     2     1     6 ar  
     3     1    11 1   
     4     2     3 ar  
     5     2    12 1   
     6     3     4 ar  
     7     3    27 1   
     8     4     5 ar  
     9     4     7 1   
    10     5     6 ar  
    11     5    10 1   
    12     6    28 1   
    13     7     8 2   
    14     8     9 1   
    15     8    29 1   
    16     9    10 1   
    17     9    14 1   
    18    10    13 2   
    19    14    15 1   
    20    14    30 1   
    21    14    31 1   
    22    15    16 2   
    23    15    32 1   
    24    16    17 1   
    25    16    33 1   
    26    17    18 1   
    27    17    34 1   
    28    17    35 1   
    29    18    19 1   
    30    18    36 1   
    31    19    20 2   
    32    19    21 1   
    33    21    22 1   
    34    21    23 1   
    35    21    37 1   
    36    22    26 1   
    37    22    38 1   
    38    23    24 1   
    39    23    25 1   
    40    23    39 1   
    41    24    40 1   
    42    25    41 1   
    43    25    42 1   
    44    25    43 1   
    45    26    44 1   
    46    26    45 1   
    47    26    46 1   
@<TRIPOS>SUBSTRUCTURE
     1 FQL         1 TEMP              0 ****  ****    0 ROOT
