@<TRIPOS>MOLECULE
FQL
   46    47     1     0     0
SMALL
bcc


@<TRIPOS>ATOM
      1 C1          -0.1560   -11.6150    45.2660 ca         1 FQL      -0.002600
      2 C2          -1.4320   -11.0280    45.2800 ca         1 FQL       0.059400
      3 C3          -1.8560   -10.3000    46.3660 ca         1 FQL      -0.110000
      4 C4          -1.0160   -10.1400    47.4740 ca         1 FQL       0.194400
      5 C5           0.2530   -10.7310    47.4570 ca         1 FQL      -0.204600
      6 C6           0.6780   -11.4640    46.3490 ca         1 FQL      -0.048000
      7 N7          -1.4600    -9.4020    48.5420 nc         1 FQL      -0.616100
      8 C8          -0.6590    -9.2760    49.5340 cd         1 FQL       0.514800
      9 N9           0.5880    -9.8150    49.6280 n          1 FQL      -0.401300
     10 C10          1.1410   -10.5590    48.6000 c          1 FQL       0.719100
     11 CL1          0.3710   -12.5190    43.9030 cl         1 FQL      -0.067400
     12 CL2         -2.4780   -11.2150    43.9310 cl         1 FQL      -0.064400
     13 O13          2.2710   -11.0040    48.6730 o          1 FQL      -0.611500
     14 C14          1.4060    -9.5250    50.8120 c3         1 FQL       0.132200
     15 C15          2.3420    -8.3920    50.5440 c2         1 FQL      -0.197200
     16 C16          2.3090    -7.2350    51.1930 c2         1 FQL      -0.165200
     17 C17          3.2270    -6.0750    50.9350 c3         1 FQL       0.129200
     18 N18          4.1080    -6.2650    49.8120 ns         1 FQL      -0.574900
     19 C19          3.7410    -6.0040    48.5420 c          1 FQL       0.637100
     20 O20          2.7110    -5.4130    48.2560 o          1 FQL      -0.584100
     21 C21          4.6800    -6.5670    47.4790 c3         1 FQL       0.063500
     22 N22          4.2630    -7.8880    47.0210 n7         1 FQL      -0.846200
     23 C23          4.8190    -5.6350    46.2680 c3         1 FQL       0.166100
     24 O24          5.5620    -6.3040    45.2730 oh         1 FQL      -0.605800
     25 C25          5.5200    -4.3380    46.6250 c3         1 FQL      -0.097100
     26 C26          2.8760    -8.0680    46.6300 c3         1 FQL       0.153100
     27 H1          -2.8370    -9.8440    46.3770 ha         1 FQL       0.171000
     28 H2           1.6610   -11.9140    46.3430 ha         1 FQL       0.171000
     29 H3          -0.9740    -8.6980    50.3940 h5         1 FQL       0.051800
     30 H4           0.7310    -9.2990    51.6360 h1         1 FQL       0.069700
     31 H5           1.9460   -10.4340    51.0760 h1         1 FQL       0.069700
     32 H6           3.0720    -8.5550    49.7590 ha         1 FQL       0.134000
     33 H7           1.5830    -7.0820    51.9870 ha         1 FQL       0.126000
     34 H8           3.8320    -5.8880    51.8240 h1         1 FQL       0.071200
     35 H9           2.6330    -5.1730    50.7800 h1         1 FQL       0.071200
     36 H10          4.9550    -6.7880    49.9690 hn         1 FQL       0.313500
     37 H11          5.6780    -6.7000    47.9110 h1         1 FQL       0.066700
     38 H12          4.5450    -8.6000    47.6810 hn         1 FQL       0.375800
     39 H14          3.8140    -5.3930    45.8950 h1         1 FQL       0.054700
     40 H15          5.3340    -7.2420    45.3770 ho         1 FQL       0.430000
     41 H16          4.9350    -3.7600    47.3410 hc         1 FQL       0.044367
     42 H17          6.5040    -4.5240    47.0590 hc         1 FQL       0.044367
     43 H18          5.6510    -3.7160    45.7390 hc         1 FQL       0.044367
     44 H19          2.7620    -9.0720    46.2240 h1         1 FQL       0.041033
     45 H20          2.1500    -7.9440    47.4410 h1         1 FQL       0.041033
     46 H21          2.6090    -7.3650    45.8420 h1         1 FQL       0.041033
@<TRIPOS>BOND
     1     1     2 ar  
     2     1     6 ar  
     3     1    11 1   
     4     2     3 ar  
     5     2    12 1   
     6     3     4 ar  
     7     3    27 1   
     8     4     5 ar  
     9     4     7 1   
    10     5     6 ar  
    11     5    10 1   
    12     6    28 1   
    13     7     8 2   
    14     8     9 1   
    15     8    29 1   
    16     9    10 1   
    17     9    14 1   
    18    10    13 2   
    19    14    15 1   
    20    14    30 1   
    21    14    31 1   
    22    15    16 2   
    23    15    32 1   
    24    16    17 1   
    25    16    33 1   
    26    17    18 1   
    27    17    34 1   
    28    17    35 1   
    29    18    19 1   
    30    18    36 1   
    31    19    20 2   
    32    19    21 1   
    33    21    22 1   
    34    21    23 1   
    35    21    37 1   
    36    22    26 1   
    37    22    38 1   
    38    23    24 1   
    39    23    25 1   
    40    23    39 1   
    41    24    40 1   
    42    25    41 1   
    43    25    42 1   
    44    25    43 1   
    45    26    44 1   
    46    26    45 1   
    47    26    46 1   
@<TRIPOS>SUBSTRUCTURE
     1 FQL         1 TEMP              0 ****  ****    0 ROOT
