@<TRIPOS>MOLECULE
FQM
   48    51     1     0     0
SMALL
bcc


@<TRIPOS>ATOM
      1 C1          -0.0180     4.2390     0.4600 ca         1 FQM      -0.137000
      2 C2          -0.8900     4.1140    -0.6150 ca         1 FQM      -0.114000
      3 C3          -0.0070     3.2760     1.4600 ca         1 FQM      -0.114000
      4 C4           6.1440     1.1880    -0.4880 ca         1 FQM      -0.052000
      5 C5           3.6930    -2.3660     0.1750 ca         1 FQM      -0.083000
      6 C6          -1.7480     3.0290    -0.6970 ca         1 FQM      -0.122500
      7 C7          -0.8780     2.1970     1.3980 ca         1 FQM      -0.122500
      8 C8           2.8570    -3.4630     0.2940 ca         1 FQM      -0.139000
      9 C9           5.4200     0.0030    -0.3700 ca         1 FQM      -0.285300
     10 C10          5.4980     2.4010    -0.4540 ca         1 FQM      -0.307300
     11 C11          1.8000    -0.9660    -0.2170 ca         1 FQM      -0.064000
     12 C12         -3.5130    -1.0260     0.0750 cc         1 FQM      -0.237300
     13 C13          3.1800    -1.0970    -0.0870 cp         1 FQM      -0.149500
     14 C14          0.9440    -2.0570    -0.1130 ca         1 FQM      -0.161600
     15 C15         -1.7370     2.0760     0.3150 ca         1 FQM       0.013800
     16 C16          1.4890    -3.3140     0.1400 ca         1 FQM       0.078400
     17 C17          4.0440     0.0990    -0.2170 cp         1 FQM       0.517800
     18 C18         -4.4730    -0.0080    -0.0270 cc         1 FQM       0.265800
     19 C19          4.0980     2.3980    -0.3030 ca         1 FQM       0.673200
     20 C20         -2.3300    -0.3500     0.2420 cd         1 FQM       0.038300
     21 C21         -0.5190    -1.8520    -0.3340 c          1 FQM       0.697700
     22 C22         -5.9330    -0.1940    -0.2040 c          1 FQM       0.604600
     23 N23          3.4090     1.2710    -0.1900 nb         1 FQM      -0.762000
     24 N24         -3.9300     1.1900     0.0740 nd         1 FQM      -0.509800
     25 N25         -2.6300     0.9790     0.2310 na         1 FQM       0.155300
     26 N26          3.3960     3.5620    -0.2240 nv         1 FQM      -0.950500
     27 N27         -6.6510     0.9330    -0.2770 nt         1 FQM      -0.665000
     28 O29         -1.1800    -2.5430    -1.0760 o          1 FQM      -0.532100
     29 O30         -6.4070    -1.3190    -0.2750 o          1 FQM      -0.598100
     30 CL1          0.4840    -4.7040     0.3340 cl         1 FQM      -0.072400
     31 H1           0.6460     5.0910     0.5210 ha         1 FQM       0.135000
     32 H2          -0.8980     4.8610    -1.3970 ha         1 FQM       0.141000
     33 H3           0.6640     3.3720     2.3020 ha         1 FQM       0.141000
     34 H5           4.7550    -2.5190     0.3070 ha         1 FQM       0.140000
     35 H6          -2.4210     2.9200    -1.5370 ha         1 FQM       0.149000
     36 H7          -0.9060     1.4810     2.2110 ha         1 FQM       0.149000
     37 H8           3.2740    -4.4360     0.5160 ha         1 FQM       0.153000
     38 H9           5.9290    -0.9490    -0.4180 ha         1 FQM       0.144000
     39 H10          6.0430     3.3320    -0.5460 ha         1 FQM       0.142000
     40 H11          1.3940     0.0150    -0.4290 ha         1 FQM       0.163000
     41 H12         -3.6640    -2.0900     0.0380 ha         1 FQM       0.199000
     42 H13          3.8160     4.3950    -0.6030 hn         1 FQM       0.418300
     43 H14          2.4020     3.4890    -0.3700 hn         1 FQM       0.418300
     44 H15         -6.2180     1.8390    -0.2050 hn         1 FQM       0.322000
     45 H16         -7.6510     0.8940    -0.3770 hn         1 FQM       0.322000
     46 N28         -1.0250    -0.7930     0.3610 ns         1 FQM      -0.475100
     47 H4           7.2180     1.1530    -0.6120 ha         1 FQM       0.136000
     48 H17         -0.4250    -0.3500     1.0410 hn         1 FQM       0.335500
@<TRIPOS>BOND
     1     1     2 ar  
     2     1     3 ar  
     3     1    31 1   
     4     2     6 ar  
     5     2    32 1   
     6     3     7 ar  
     7     3    33 1   
     8     4     9 ar  
     9     4    10 ar  
    10     4    47 1   
    11     5     8 ar  
    12     5    13 ar  
    13     5    34 1   
    14     6    15 ar  
    15     6    35 1   
    16     7    15 ar  
    17     7    36 1   
    18     8    16 ar  
    19     8    37 1   
    20     9    17 ar  
    21     9    38 1   
    22    10    19 ar  
    23    10    39 1   
    24    11    13 ar  
    25    11    14 ar  
    26    11    40 1   
    27    12    18 1   
    28    12    20 2   
    29    12    41 1   
    30    13    17 1   
    31    14    16 ar  
    32    14    21 1   
    33    15    25 1   
    34    16    30 1   
    35    17    23 ar  
    36    18    22 1   
    37    18    24 2   
    38    19    23 ar  
    39    19    26 1   
    40    20    25 1   
    41    20    46 1   
    42    21    28 2   
    43    21    46 1   
    44    22    27 1   
    45    22    29 2   
    46    24    25 1   
    47    26    42 1   
    48    26    43 1   
    49    27    44 1   
    50    27    45 1   
    51    46    48 1   
@<TRIPOS>SUBSTRUCTURE
     1 FQM         1 TEMP              0 ****  ****    0 ROOT
