@<TRIPOS>MOLECULE
FQM
   48    51     1     0     0
SMALL
No Charge or Current Charge


@<TRIPOS>ATOM
      1 C1           0.1370     4.0670     1.0720 ca         1 FQM      -0.119000
      2 C2          -0.4220     3.9820    -0.2150 ca         1 FQM      -0.096000
      3 C3          -0.2870     3.1850     2.0810 ca         1 FQM      -0.096000
      4 C4           6.1720     1.1680    -1.0700 ca         1 FQM      -0.034000
      5 C5           3.7400    -2.2780     0.3190 ca         1 FQM      -0.065000
      6 C6          -1.4050     3.0150    -0.4930 ca         1 FQM      -0.104500
      7 C7          -1.2710     2.2190     1.8050 ca         1 FQM      -0.104500
      8 C8           2.9200    -3.3800     0.6000 ca         1 FQM      -0.121000
      9 C9           5.4070     0.0220    -0.7990 ca         1 FQM      -0.202000
     10 C10          5.5480     2.4140    -0.9230 ca         1 FQM      -0.224000
     11 C11          1.7680    -0.9630    -0.1930 ca         1 FQM      -0.046000
     12 C12         -3.5020    -0.8170    -0.2630 cc         1 FQM      -0.154000
     13 C13          3.1830    -1.0410    -0.0870 cp         1 FQM      -0.149500
     14 C14          0.9230    -2.0670     0.0930 ca         1 FQM      -0.161600
     15 C15         -1.8330     2.1290     0.5150 ca         1 FQM       0.013800
     16 C16          1.5250    -3.2870     0.4900 ca         1 FQM       0.170000
     17 C17          4.0530     0.1510    -0.3910 cp         1 FQM       0.452500
     18 C18         -4.5540     0.1330    -0.2570 cc         1 FQM       0.200500
     19 C19          4.2130     2.4360    -0.5200 ca         1 FQM       0.607900
     20 C20         -2.3560    -0.1500     0.0480 cd         1 FQM      -0.012400
     21 C21         -0.5780    -1.9190    -0.0420 c          1 FQM       0.630700
     22 C22         -5.9690    -0.2720    -0.5660 c          1 FQM       0.537600
     23 N23          3.4750     1.3680    -0.2680 nb         1 FQM      -0.762000
     24 N24         -4.1500     1.3680     0.0360 nd         1 FQM      -0.509800
     25 N25         -2.7980     1.1620     0.2340 na         1 FQM       0.206000
     26 N26          3.5050     3.5530    -0.3570 nv         1 FQM      -1.060900
     27 N27         -6.8910     0.7230    -0.5340 nt         1 FQM      -0.598000
     28 O29         -1.3120    -2.8440    -0.3590 o          1 FQM      -0.532100
     29 O30         -6.3280    -1.4090    -0.8370 o          1 FQM      -0.598100
     30 Cl1          0.5930    -4.7200     0.9340 cl         1 FQM      -0.164000
     31 H1           0.8950     4.8170     1.2880 ha         1 FQM       0.117000
     32 H2          -0.0970     4.6660    -0.9970 ha         1 FQM       0.123000
     33 H3           0.1450     3.2520     3.0780 ha         1 FQM       0.123000
     34 H5           4.8150    -2.3890     0.4370 ha         1 FQM       0.122000
     35 H6          -1.8340     2.9520    -1.4900 ha         1 FQM       0.131000
     36 H7          -1.5970     1.5410     2.5900 ha         1 FQM       0.131000
     37 H8           3.3710    -4.3160     0.9210 ha         1 FQM       0.135000
     38 H9           5.8550    -0.9580    -0.9190 ha         1 FQM       0.126000
     39 H10          6.0870     3.3360    -1.1170 ha         1 FQM       0.124000
     40 H11          1.3340    -0.0270    -0.5380 ha         1 FQM       0.145000
     41 H12         -3.6260    -1.8710    -0.4850 ha         1 FQM       0.181000
     42 H13          3.8160     4.3790    -0.8570 hn         1 FQM       0.473500
     43 H14          2.5060     3.4140    -0.2770 hn         1 FQM       0.473500
     44 H15         -6.5960     1.6630    -0.3110 hn         1 FQM       0.322000
     45 H16         -7.8580     0.5160    -0.7330 hn         1 FQM       0.322000
     46 N28         -1.0560    -0.6350     0.1530 ns         1 FQM      -0.408100
     47 H4           7.2110     1.0900    -1.3860 ha         1 FQM       0.118000
     48 H17         -0.3330     0.0200     0.4230 hn         1 FQM       0.335500
@<TRIPOS>BOND
     1     1     2 ar  
     2     1     3 ar  
     3     1    31 1   
     4     2     6 ar  
     5     2    32 1   
     6     3     7 ar  
     7     3    33 1   
     8     4     9 ar  
     9     4    10 ar  
    10     4    47 1   
    11     5     8 ar  
    12     5    13 ar  
    13     5    34 1   
    14     6    15 ar  
    15     6    35 1   
    16     7    15 ar  
    17     7    36 1   
    18     8    16 ar  
    19     8    37 1   
    20     9    17 ar  
    21     9    38 1   
    22    10    19 ar  
    23    10    39 1   
    24    11    13 ar  
    25    11    14 ar  
    26    11    40 1   
    27    12    18 1   
    28    12    20 2   
    29    12    41 1   
    30    13    17 1   
    31    14    16 ar  
    32    14    21 1   
    33    15    25 1   
    34    16    30 1   
    35    17    23 ar  
    36    18    22 1   
    37    18    24 2   
    38    19    23 ar  
    39    19    26 1   
    40    20    25 1   
    41    20    46 1   
    42    21    28 2   
    43    21    46 1   
    44    22    27 1   
    45    22    29 2   
    46    24    25 1   
    47    26    42 1   
    48    26    43 1   
    49    27    44 1   
    50    27    45 1   
    51    46    48 1   
@<TRIPOS>SUBSTRUCTURE
     1 FQM         1 TEMP              0 ****  ****    0 ROOT
