@<TRIPOS>MOLECULE
FQN
   51    55     1     0     0
SMALL
bcc


@<TRIPOS>ATOM
      1 C5          -6.5900     0.4780     0.2180 c          1 FQN       0.715100
      2 C7          -0.1050     0.8760    -0.8610 cc         1 FQN       0.314200
      3 C8           0.4260    -0.1610    -0.0560 cc         1 FQN      -0.258600
      4 C3          -4.1500     0.1600     0.0350 ca         1 FQN       0.084100
      5 N1          -6.2300     1.7810     0.4680 ns         1 FQN      -0.494400
      6 C6          -4.9450     2.2130     0.5240 cc         1 FQN       0.501800
      7 C11          2.6600    -0.9040    -0.9140 c6         1 FQN      -0.070900
      8 C10          1.8540    -0.4240     0.2940 c6         1 FQN       0.022600
      9 C9          -0.6770    -0.8860     0.3060 cd         1 FQN      -0.099300
     10 C14          2.5510     0.7970     0.8890 c6         1 FQN      -0.070900
     11 O           -7.7490     0.1190     0.1860 o          1 FQN      -0.594500
     12 C4          -5.4330    -0.3970     0.0050 ca         1 FQN      -0.167600
     13 C           -5.6000    -1.7650    -0.1950 ca         1 FQN      -0.182300
     14 N2          -3.9150     1.4790     0.3190 nd         1 FQN      -0.578100
     15 C2          -3.0790    -0.7320    -0.2030 ca         1 FQN       0.542800
     16 N           -3.2410    -2.0200    -0.3660 nb         1 FQN      -0.670000
     17 C1          -4.4720    -2.5370    -0.3470 ca         1 FQN       0.402200
     18 N3          -1.7550    -0.2730    -0.2480 na         1 FQN       0.059600
     19 N4          -1.4120     0.7980    -0.9690 nd         1 FQN      -0.484800
     20 C13          4.0130     0.5050     1.1910 c6         1 FQN       0.165300
     21 N5           4.7310     0.0680     0.0030 n3         1 FQN      -0.711600
     22 C12          4.1160    -1.1330    -0.5410 c6         1 FQN       0.165300
     23 H1           0.4290     1.6680    -1.3660 h4         1 FQN       0.040100
     24 H2          -6.9700     2.4500     0.6390 hn         1 FQN       0.336500
     25 H3          -4.8240     3.2620     0.7640 h5         1 FQN       0.055800
     26 H5           2.6010    -0.1600    -1.7150 hc         1 FQN       0.049700
     27 H6           1.8750    -1.2220     1.0460 hc         1 FQN       0.044700
     28 H7          -0.7770    -1.7660     0.9200 h4         1 FQN       0.180000
     29 H8           2.4930     1.6370     0.1890 hc         1 FQN       0.049700
     30 H9           2.0490     1.1100     1.8080 hc         1 FQN       0.049700
     31 H10         -6.5850    -2.2110    -0.2170 ha         1 FQN       0.169000
     32 H11         -4.5450    -3.6090    -0.4760 h4         1 FQN       0.033100
     33 H12          4.4770     1.4130     1.5760 h1         1 FQN       0.029200
     34 H13          4.0740    -0.2500     1.9980 h1         1 FQN       0.029200
     35 H16          4.1750    -1.9710     0.1790 h1         1 FQN       0.029200
     36 H17          4.6640    -1.4470    -1.4310 h1         1 FQN       0.029200
     37 C15          6.1460    -0.1460     0.2640 c5         1 FQN       0.175500
     38 C16          6.9500    -0.4480    -1.0200 c5         1 FQN      -0.079900
     39 C17          8.3250     0.2310    -0.8460 c5         1 FQN      -0.079400
     40 C18          8.3360     0.7530     0.5930 c5         1 FQN      -0.079400
     41 C19          6.8700     1.0580     0.8730 c5         1 FQN      -0.079900
     42 H14          6.2740    -0.9920     0.9660 h1         1 FQN       0.017700
     43 H15          7.0460    -1.5200    -1.1910 hc         1 FQN       0.048450
     44 H18          6.4210    -0.0340    -1.8820 hc         1 FQN       0.048450
     45 H19          9.1540    -0.4480    -1.0480 hc         1 FQN       0.041700
     46 H20          8.4220     1.0650    -1.5430 hc         1 FQN       0.041700
     47 H21          8.6850    -0.0260     1.2760 hc         1 FQN       0.041700
     48 H22          8.9880     1.6170     0.7300 hc         1 FQN       0.041700
     49 H23          6.5640     1.9710     0.3500 hc         1 FQN       0.048450
     50 H24          6.6650     1.1980     1.9350 hc         1 FQN       0.048450
     51 H4           2.2370    -1.8310    -1.3070 hc         1 FQN       0.049700
@<TRIPOS>BOND
     1     1     5 1   
     2     1    11 2   
     3     1    12 1   
     4     2     3 1   
     5     2    19 2   
     6     2    23 1   
     7     3     8 1   
     8     3     9 2   
     9     4    12 ar  
    10     4    14 1   
    11     4    15 ar  
    12     5     6 1   
    13     5    24 1   
    14     6    14 2   
    15     6    25 1   
    16     7     8 1   
    17     7    22 1   
    18     7    26 1   
    19     7    51 1   
    20     8    10 1   
    21     8    27 1   
    22     9    18 1   
    23     9    28 1   
    24    10    20 1   
    25    10    29 1   
    26    10    30 1   
    27    12    13 ar  
    28    13    17 ar  
    29    13    31 1   
    30    15    16 ar  
    31    15    18 1   
    32    16    17 ar  
    33    17    32 1   
    34    18    19 1   
    35    20    21 1   
    36    20    33 1   
    37    20    34 1   
    38    21    22 1   
    39    21    37 1   
    40    22    35 1   
    41    22    36 1   
    42    37    38 1   
    43    37    41 1   
    44    37    42 1   
    45    38    39 1   
    46    38    43 1   
    47    38    44 1   
    48    39    40 1   
    49    39    45 1   
    50    39    46 1   
    51    40    41 1   
    52    40    47 1   
    53    40    48 1   
    54    41    49 1   
    55    41    50 1   
@<TRIPOS>SUBSTRUCTURE
     1 FQN         1 TEMP              0 ****  ****    0 ROOT
