@<TRIPOS>MOLECULE
FQN
   51    55     1     0     0
SMALL
No Charge or Current Charge


@<TRIPOS>ATOM
      1 C5          -6.1540     0.4160     1.1130 c          1 FQN       0.572600
      2 C7           0.0550     0.3770    -1.7390 cc         1 FQN       0.248900
      3 C8           0.3330    -0.3080    -0.5330 cc         1 FQN      -0.193300
      4 C3          -3.9250     0.0360     0.0320 ca         1 FQN       0.149400
      5 N1          -5.5440     1.4690     1.6960 ns         1 FQN      -0.427400
      6 C6          -4.2350     1.8200     1.4970 cc         1 FQN       0.501800
      7 C11          2.6630    -1.2080    -0.8660 c6         1 FQN      -0.070900
      8 C10          1.7050    -0.4570     0.0850 c6         1 FQN       0.022600
      9 C9          -0.8510    -0.7940    -0.0660 cd         1 FQN      -0.132000
     10 C14          2.3080     0.9210     0.4350 c6         1 FQN      -0.070900
     11 O           -7.3260     0.1460     1.3250 o          1 FQN      -0.519000
     12 C4          -5.2700    -0.3620     0.2090 ca         1 FQN      -0.167600
     13 C           -5.7490    -1.4940    -0.4800 ca         1 FQN      -0.099000
     14 N2          -3.3840     1.1700     0.7020 nd         1 FQN      -0.578100
     15 C2          -3.1050    -0.7490    -0.8550 ca         1 FQN       0.477500
     16 N           -3.5960    -1.8440    -1.5100 nb         1 FQN      -0.670000
     17 C1          -4.8830    -2.2000    -1.3220 ca         1 FQN       0.336900
     18 N3          -1.7660    -0.3440    -1.0220 na         1 FQN       0.110300
     19 N4          -1.2170     0.3660    -2.0860 nd         1 FQN      -0.484800
     20 C13          3.7390     0.7710     1.0050 c6         1 FQN       0.165300
     21 N5           4.6530     0.0460     0.0670 n3         1 FQN      -0.711600
     22 C12          4.0840    -1.3000    -0.2590 c6         1 FQN       0.165300
     23 H1           0.7640     0.8820    -2.3830 h4         1 FQN       0.040100
     24 H2          -6.1100     2.0260     2.3200 hn         1 FQN       0.336500
     25 H3          -3.9490     2.6980     2.0620 h5         1 FQN       0.055800
     26 H5           2.7190    -0.6950    -1.8360 hc         1 FQN       0.049700
     27 H6           1.6190    -1.0390     1.0140 hc         1 FQN       0.044700
     28 H7          -1.1110    -1.3780     0.8110 h4         1 FQN       0.162000
     29 H8           2.3410     1.5610    -0.4570 hc         1 FQN       0.049700
     30 H9           1.6700     1.4350     1.1670 hc         1 FQN       0.049700
     31 H10         -6.7770    -1.8310    -0.3690 ha         1 FQN       0.151000
     32 H11         -5.2300    -3.0780    -1.8650 h4         1 FQN       0.033100
     33 H12          4.1110     1.7820     1.2180 h1         1 FQN       0.029200
     34 H13          3.6880     0.2400     1.9680 h1         1 FQN       0.029200
     35 H16          4.0470    -1.9230     0.6470 h1         1 FQN       0.029200
     36 H17          4.7150    -1.8310    -0.9850 h1         1 FQN       0.029200
     37 C15          6.0890     0.0100     0.5110 c5         1 FQN       0.175500
     38 C16          6.9660    -0.5380    -0.6520 c5         1 FQN      -0.079900
     39 C17          8.3940    -0.0210    -0.2980 c5         1 FQN      -0.079400
     40 C18          8.1660     1.1820     0.6700 c5         1 FQN      -0.079400
     41 C19          6.6430     1.4600     0.5780 c5         1 FQN      -0.079900
     42 H14          6.2360    -0.5420     1.4500 h1         1 FQN       0.017700
     43 H15          6.9420    -1.6310    -0.7210 hc         1 FQN       0.048450
     44 H18          6.6410    -0.1440    -1.6230 hc         1 FQN       0.048450
     45 H19          8.9930    -0.8010     0.1870 hc         1 FQN       0.041700
     46 H20          8.9390     0.2800    -1.2010 hc         1 FQN       0.041700
     47 H21          8.4510     0.9140     1.6940 hc         1 FQN       0.041700
     48 H22          8.7620     2.0590     0.3920 hc         1 FQN       0.041700
     49 H23          6.3900     2.0440    -0.3160 hc         1 FQN       0.048450
     50 H24          6.2900     2.0170     1.4520 hc         1 FQN       0.048450
     51 H4           2.2800    -2.2180    -1.0650 hc         1 FQN       0.049700
@<TRIPOS>BOND
     1     1     5 1   
     2     1    11 2   
     3     1    12 1   
     4     2     3 1   
     5     2    19 2   
     6     2    23 1   
     7     3     8 1   
     8     3     9 2   
     9     4    12 ar  
    10     4    14 1   
    11     4    15 ar  
    12     5     6 1   
    13     5    24 1   
    14     6    14 2   
    15     6    25 1   
    16     7     8 1   
    17     7    22 1   
    18     7    26 1   
    19     7    51 1   
    20     8    10 1   
    21     8    27 1   
    22     9    18 1   
    23     9    28 1   
    24    10    20 1   
    25    10    29 1   
    26    10    30 1   
    27    12    13 ar  
    28    13    17 ar  
    29    13    31 1   
    30    15    16 ar  
    31    15    18 1   
    32    16    17 ar  
    33    17    32 1   
    34    18    19 1   
    35    20    21 1   
    36    20    33 1   
    37    20    34 1   
    38    21    22 1   
    39    21    37 1   
    40    22    35 1   
    41    22    36 1   
    42    37    38 1   
    43    37    41 1   
    44    37    42 1   
    45    38    39 1   
    46    38    43 1   
    47    38    44 1   
    48    39    40 1   
    49    39    45 1   
    50    39    46 1   
    51    40    41 1   
    52    40    47 1   
    53    40    48 1   
    54    41    49 1   
    55    41    50 1   
@<TRIPOS>SUBSTRUCTURE
     1 FQN         1 TEMP              0 ****  ****    0 ROOT
