@<TRIPOS>MOLECULE
FQQ
   57    61     1     0     0
SMALL
No Charge or Current Charge


@<TRIPOS>ATOM
      1 C1          -7.2940     0.9070     2.2840 ca         1 FQQ       0.336900
      2 C2          -5.3760     0.0560     1.2440 ca         1 FQQ       0.476500
      3 C3          -5.9520     0.2420    -0.0630 ca         1 FQQ       0.149400
      4 C4          -7.2560     0.7860    -0.1350 ca         1 FQQ      -0.167600
      5 C5          -7.8910     0.9960    -1.4600 c          1 FQQ       0.573600
      6 C6          -5.8560     0.1020    -2.3850 cc         1 FQQ       0.501800
      7 C7          -2.3980    -1.6820     1.5880 cc         1 FQQ       0.243900
      8 C8          -1.9150    -0.3780     1.3290 cc         1 FQQ      -0.203300
      9 C9          -3.0160     0.4120     1.1580 cd         1 FQQ      -0.129000
     10 C10         -0.4560    -0.0060     1.2770 c3         1 FQQ       0.008900
     11 C11          0.2570    -0.5650     0.0220 c3         1 FQQ       0.168800
     12 C12          2.5870    -0.5340     0.9050 c6         1 FQQ       0.168300
     13 C13          4.0130     0.0420     0.7070 c6         1 FQQ      -0.067900
     14 C19          8.2420     0.9440     0.0230 ca         1 FQQ       0.122000
     15 C18          7.0030     0.2940     0.1450 ca         1 FQQ      -0.106000
     16 C20          8.5150     1.7420    -1.0950 ca         1 FQQ      -0.106000
     17 C21          7.5440     1.8840    -2.0980 ca         1 FQQ      -0.102000
     18 C22          6.3030     1.2350    -1.9790 ca         1 FQQ      -0.108000
     19 C17          6.0030     0.4330    -0.8480 ca         1 FQQ      -0.054300
     20 C14          4.6420    -0.3120    -0.6800 c6         1 FQQ       0.003300
     21 C23          4.9420    -1.8440    -0.7750 c3         1 FQQ      -0.084100
     22 C15          3.5910     0.0920    -1.7670 c6         1 FQQ      -0.067900
     23 C16          2.1790    -0.4910    -1.5100 c6         1 FQQ       0.168300
     24 N5           1.6560    -0.1010    -0.1740 n3         1 FQQ      -0.720600
     25 N4          -3.7120    -1.7920     1.5990 nd         1 FQQ      -0.481800
     26 N3          -4.0760    -0.4850     1.3040 na         1 FQQ       0.110300
     27 N           -6.0520     0.3900     2.3840 nb         1 FQQ      -0.670000
     28 N2          -5.2210    -0.1140    -1.2320 nd         1 FQQ      -0.579100
     29 N1          -7.1150     0.6250    -2.5010 ns         1 FQQ      -0.427400
     30 O           -9.0100     1.4580    -1.6180 o          1 FQQ      -0.519000
     31 C           -7.9290     1.1200     1.0570 ca         1 FQQ      -0.099000
     32 H1          -7.7940     1.1570     3.2190 h4         1 FQQ       0.034100
     33 H2          -5.4100    -0.1250    -3.3460 h5         1 FQQ       0.054800
     34 H3          -1.8050    -2.5660     1.7810 h4         1 FQQ       0.038100
     35 H4          -3.1310     1.4700     0.9500 h4         1 FQQ       0.165000
     36 H5          -0.3530     1.0860     1.2860 hc         1 FQQ       0.053200
     37 H6           0.0380    -0.3780     2.1820 hc         1 FQQ       0.053200
     38 H7           0.2290    -1.6620     0.0640 h1         1 FQQ       0.032700
     39 H8          -0.3430    -0.2650    -0.8480 h1         1 FQQ       0.032700
     40 H9           2.6360    -1.6320     0.9500 h1         1 FQQ       0.030700
     41 H10          2.2260    -0.1930     1.8860 h1         1 FQQ       0.030700
     42 H11          3.9680     1.1340     0.8160 hc         1 FQQ       0.049950
     43 H12          4.6450    -0.3190     1.5280 hc         1 FQQ       0.049950
     44 H13          6.8320    -0.3260     1.0200 ha         1 FQQ       0.127000
     45 H14          9.4750     2.2430    -1.1860 ha         1 FQQ       0.129000
     46 H15          7.7550     2.4980    -2.9710 ha         1 FQQ       0.116000
     47 H16          5.5890     1.3700    -2.7860 ha         1 FQQ       0.117000
     48 H17          5.6350    -2.1700     0.0100 hc         1 FQQ       0.037033
     49 H18          4.0420    -2.4600    -0.6760 hc         1 FQQ       0.037033
     50 H19          5.4020    -2.0940    -1.7380 hc         1 FQQ       0.037033
     51 H20          3.4990     1.1860    -1.8030 hc         1 FQQ       0.049950
     52 H21          3.9280    -0.2290    -2.7620 hc         1 FQQ       0.049950
     53 H22          1.5060    -0.1220    -2.2980 h1         1 FQQ       0.030700
     54 H23          2.2050    -1.5860    -1.6070 h1         1 FQQ       0.030700
     55 H25         -7.5100     0.7510    -3.4220 hn         1 FQQ       0.336500
     56 H26         -8.9320     1.5400     1.0410 ha         1 FQQ       0.151000
     57 Cl           9.4580     0.7510     1.2790 cl         1 FQQ      -0.211000
@<TRIPOS>BOND
     1     1    27 ar  
     2     1    31 ar  
     3     1    32 1   
     4     2     3 ar  
     5     2    26 1   
     6     2    27 ar  
     7     3     4 ar  
     8     3    28 1   
     9     4     5 1   
    10     4    31 ar  
    11     5    29 1   
    12     5    30 2   
    13     6    28 2   
    14     6    29 1   
    15     6    33 1   
    16     7     8 1   
    17     7    25 2   
    18     7    34 1   
    19     8     9 2   
    20     8    10 1   
    21     9    26 1   
    22     9    35 1   
    23    10    11 1   
    24    10    36 1   
    25    10    37 1   
    26    11    24 1   
    27    11    38 1   
    28    11    39 1   
    29    12    13 1   
    30    12    24 1   
    31    12    40 1   
    32    12    41 1   
    33    13    20 1   
    34    13    42 1   
    35    13    43 1   
    36    14    15 ar  
    37    14    16 ar  
    38    14    57 1   
    39    15    19 ar  
    40    15    44 1   
    41    16    17 ar  
    42    16    45 1   
    43    17    18 ar  
    44    17    46 1   
    45    18    19 ar  
    46    18    47 1   
    47    19    20 1   
    48    20    21 1   
    49    20    22 1   
    50    21    48 1   
    51    21    49 1   
    52    21    50 1   
    53    22    23 1   
    54    22    51 1   
    55    22    52 1   
    56    23    24 1   
    57    23    53 1   
    58    23    54 1   
    59    25    26 1   
    60    29    55 1   
    61    31    56 1   
@<TRIPOS>SUBSTRUCTURE
     1 FQQ         1 TEMP              0 ****  ****    0 ROOT
