@<TRIPOS>MOLECULE
FQQ
   57    61     1     0     0
SMALL
bcc


@<TRIPOS>ATOM
      1 C1          -6.6950     2.1390     1.4870 ca         1 FQQ       0.402200
      2 C2          -5.2220     0.5290     0.8120 ca         1 FQQ       0.541800
      3 C3          -6.1730    -0.0780    -0.0410 ca         1 FQQ       0.084100
      4 C4          -7.4550     0.4810    -0.0300 ca         1 FQQ      -0.167600
      5 C5          -8.4960    -0.1130    -0.8750 c          1 FQQ       0.716100
      6 C6          -6.7460    -1.6030    -1.6010 cc         1 FQQ       0.501800
      7 C7          -2.3770    -1.3740     1.1980 cc         1 FQQ       0.309200
      8 C8          -1.7410    -0.1110     1.1400 cc         1 FQQ      -0.268600
      9 C9          -2.7780     0.7660     0.9640 cd         1 FQQ      -0.096300
     10 C10         -0.2790     0.1810     1.1930 c3         1 FQQ       0.008900
     11 C11          0.3830    -0.0660    -0.1630 c3         1 FQQ       0.168800
     12 C12          2.5790    -0.7840     0.5280 c6         1 FQQ       0.168300
     13 C13          4.0520    -0.4100     0.5910 c6         1 FQQ      -0.067900
     14 C19          8.2940     0.1520     0.3150 ca         1 FQQ       0.030400
     15 C18          7.0000    -0.3110     0.1620 ca         1 FQQ      -0.124000
     16 C20          8.7320     1.3110    -0.3070 ca         1 FQQ      -0.124000
     17 C21          7.8300     2.0030    -1.0980 ca         1 FQQ      -0.120000
     18 C22          6.5260     1.5500    -1.2590 ca         1 FQQ      -0.126000
     19 C17          6.0860     0.3880    -0.6290 ca         1 FQQ      -0.054300
     20 C14          4.6750    -0.1650    -0.7960 c6         1 FQQ       0.003300
     21 C23          4.7890    -1.4760    -1.5910 c3         1 FQQ      -0.084100
     22 C15          3.7590     0.8220    -1.5310 c6         1 FQQ      -0.067900
     23 C16          2.2990     0.3970    -1.5230 c6         1 FQQ       0.168300
     24 N5           1.8030     0.2250    -0.1700 n3         1 FQQ      -0.720600
     25 N4          -3.6800    -1.2800     1.0630 nd         1 FQQ      -0.481800
     26 N3          -3.9160     0.0260     0.9100 na         1 FQQ       0.059600
     27 N           -5.4750     1.5970     1.5240 nb         1 FQQ      -0.670000
     28 N2          -5.8220    -1.1210    -0.8560 nd         1 FQQ      -0.579100
     29 N1          -8.0300    -1.1640    -1.6270 ns         1 FQQ      -0.494400
     30 O           -9.6490     0.2630    -0.9270 o          1 FQQ      -0.594500
     31 C           -7.7250     1.6040     0.7490 ca         1 FQQ      -0.182300
     32 H1          -6.8430     3.0280     2.0860 h4         1 FQQ       0.034100
     33 H2          -6.5270    -2.4200    -2.2770 h5         1 FQQ       0.054800
     34 H3          -1.9150    -2.3400     1.3470 h4         1 FQQ       0.038100
     35 H4          -2.7930     1.8390     0.8610 h4         1 FQQ       0.183000
     36 H5          -0.1130     1.2200     1.4850 hc         1 FQQ       0.053200
     37 H6           0.1830    -0.4380     1.9650 hc         1 FQQ       0.053200
     38 H7           0.1770    -1.1000    -0.4890 h1         1 FQQ       0.032700
     39 H8          -0.1000     0.5850    -0.8960 h1         1 FQQ       0.032700
     40 H9           2.4540    -1.7770     0.0610 h1         1 FQQ       0.030700
     41 H10          2.2130    -0.8820     1.5520 h1         1 FQQ       0.030700
     42 H11          4.1550     0.4970     1.1920 hc         1 FQQ       0.049950
     43 H12          4.5850    -1.2020     1.1230 hc         1 FQQ       0.049950
     44 H13          6.7060    -1.2250     0.6620 ha         1 FQQ       0.145000
     45 H14          9.7470     1.6620    -0.1810 ha         1 FQQ       0.147000
     46 H15          8.1470     2.9100    -1.5960 ha         1 FQQ       0.134000
     47 H16          5.8590     2.1200    -1.8900 ha         1 FQQ       0.135000
     48 H17          5.4090    -2.2050    -1.0680 hc         1 FQQ       0.037033
     49 H18          3.8200    -1.9440    -1.7650 hc         1 FQQ       0.037033
     50 H19          5.2420    -1.2920    -2.5670 hc         1 FQQ       0.037033
     51 H20          3.8240     1.8050    -1.0560 hc         1 FQQ       0.049950
     52 H21          4.0820     0.9480    -2.5680 hc         1 FQQ       0.049950
     53 H22          1.7090     1.1760    -2.0120 h1         1 FQQ       0.030700
     54 H23          2.1610    -0.5150    -2.1280 h1         1 FQQ       0.030700
     55 H25         -8.6800    -1.6210    -2.2550 hn         1 FQQ       0.336500
     56 H26         -8.7090     2.0520     0.7640 ha         1 FQQ       0.169000
     57 CL           9.3990    -0.7440     1.3110 cl         1 FQQ      -0.119400
@<TRIPOS>BOND
     1     1    27 ar  
     2     1    31 ar  
     3     1    32 1   
     4     2     3 ar  
     5     2    26 1   
     6     2    27 ar  
     7     3     4 ar  
     8     3    28 1   
     9     4     5 1   
    10     4    31 ar  
    11     5    29 1   
    12     5    30 2   
    13     6    28 2   
    14     6    29 1   
    15     6    33 1   
    16     7     8 1   
    17     7    25 2   
    18     7    34 1   
    19     8     9 2   
    20     8    10 1   
    21     9    26 1   
    22     9    35 1   
    23    10    11 1   
    24    10    36 1   
    25    10    37 1   
    26    11    24 1   
    27    11    38 1   
    28    11    39 1   
    29    12    13 1   
    30    12    24 1   
    31    12    40 1   
    32    12    41 1   
    33    13    20 1   
    34    13    42 1   
    35    13    43 1   
    36    14    15 ar  
    37    14    16 ar  
    38    14    57 1   
    39    15    19 ar  
    40    15    44 1   
    41    16    17 ar  
    42    16    45 1   
    43    17    18 ar  
    44    17    46 1   
    45    18    19 ar  
    46    18    47 1   
    47    19    20 1   
    48    20    21 1   
    49    20    22 1   
    50    21    48 1   
    51    21    49 1   
    52    21    50 1   
    53    22    23 1   
    54    22    51 1   
    55    22    52 1   
    56    23    24 1   
    57    23    53 1   
    58    23    54 1   
    59    25    26 1   
    60    29    55 1   
    61    31    56 1   
@<TRIPOS>SUBSTRUCTURE
     1 FQQ         1 TEMP              0 ****  ****    0 ROOT
