@<TRIPOS>MOLECULE
FQR
   42    43     1     0     0
SMALL
No Charge or Current Charge


@<TRIPOS>ATOM
      1 O1           2.8720    -5.8870    -2.6550 os         1 FQR      -0.437100
      2 C2           2.3300    -6.1590    -3.8900 c          1 FQR       0.541100
      3 C3           3.3880    -6.7580    -4.8720 c3         1 FQR       0.125500
      4 O4           1.1530    -5.9860    -4.1850 o          1 FQR      -0.483000
      5 C5           3.9700    -5.6380    -5.8030 c3         1 FQR       0.184300
      6 C6           4.5190    -4.4110    -5.0430 c3         1 FQR      -0.138100
      7 N7           2.8900    -7.9660    -5.6420 n8         1 FQR      -0.982200
      8 O8           5.0360    -6.1630    -6.6120 oh         1 FQR      -0.637000
      9 C9           1.9920    -5.5100    -1.5800 c3         1 FQR       0.190800
     10 C10          1.1470    -6.7210    -1.2350 c2         1 FQR      -0.222200
     11 C11          1.6140    -7.9760    -1.1040 c2         1 FQR      -0.233200
     12 C12          0.7680    -9.2210    -0.9580 c3         1 FQR       0.133200
     13 N13         -0.2690    -9.3060    -2.0080 n          1 FQR      -0.333300
     14 C14          0.1130    -9.5360    -3.3270 c          1 FQR       0.574600
     15 C15         -1.0000    -9.5940    -4.3040 ca         1 FQR      -0.191600
     16 C16         -2.3140    -9.4060    -3.8430 ca         1 FQR       0.184400
     17 N17         -2.6490    -9.1690    -2.5050 nc         1 FQR      -0.616100
     18 C18         -1.6020    -9.1350    -1.6730 cd         1 FQR       0.510800
     19 C19         -0.7480    -9.8350    -5.6740 ca         1 FQR      -0.034000
     20 C20         -1.8080    -9.8840    -6.5920 ca         1 FQR       0.107000
     21 C21         -3.1260    -9.6920    -6.1390 ca         1 FQR       0.009100
     22 C22         -3.3680    -9.4570    -4.7750 ca         1 FQR      -0.071000
     23 Cl2         -1.4600   -10.1840    -8.2940 cl         1 FQR      -0.157000
     24 Br2         -4.6110    -9.7490    -7.3530 br         1 FQR      -0.052100
     25 O25          1.2810    -9.6810    -3.6680 o          1 FQR      -0.536000
     26 H1           4.2140    -7.1000    -4.2330 h1         1 FQR       0.096700
     27 H2           3.1560    -5.2890    -6.4540 h1         1 FQR       0.042700
     28 H3           3.7200    -3.8930    -4.4990 hc         1 FQR       0.045033
     29 H4           5.2900    -4.7100    -4.3220 hc         1 FQR       0.045033
     30 H5           4.9620    -3.6890    -5.7400 hc         1 FQR       0.045033
     31 H6           2.4830    -8.6390    -4.9720 hn         1 FQR       0.416000
     32 H7           2.0790    -7.6850    -6.2050 hn         1 FQR       0.416000
     33 H9           5.2300    -5.4920    -7.3020 ho         1 FQR       0.441000
     34 H10          2.5750    -5.2080    -0.7000 h1         1 FQR       0.073700
     35 H11          1.3560    -4.6610    -1.8680 h1         1 FQR       0.073700
     36 H12          0.0770    -6.5130    -1.1870 ha         1 FQR       0.177000
     37 H13          2.6840    -8.1800    -1.1920 ha         1 FQR       0.198000
     38 H14          0.2970    -9.2280     0.0350 h1         1 FQR       0.067200
     39 H15          1.4060   -10.1130    -1.0170 h1         1 FQR       0.067200
     40 H16         -1.7980    -8.9520    -0.6240 h5         1 FQR       0.049800
     41 H17          0.2670    -9.9880    -6.0330 ha         1 FQR       0.155000
     42 H18         -4.3880    -9.3120    -4.4320 ha         1 FQR       0.153000
@<TRIPOS>BOND
     1     1     2 1   
     2     1     9 1   
     3     2     3 1   
     4     2     4 2   
     5     3     5 1   
     6     3     7 1   
     7     3    26 1   
     8     5     6 1   
     9     5     8 1   
    10     5    27 1   
    11     6    28 1   
    12     6    29 1   
    13     6    30 1   
    14     7    31 1   
    15     7    32 1   
    16     8    33 1   
    17     9    10 1   
    18     9    34 1   
    19     9    35 1   
    20    10    11 2   
    21    10    36 1   
    22    11    12 1   
    23    11    37 1   
    24    12    13 1   
    25    12    38 1   
    26    12    39 1   
    27    13    14 1   
    28    13    18 1   
    29    14    15 1   
    30    14    25 2   
    31    15    16 ar  
    32    15    19 ar  
    33    16    17 1   
    34    16    22 ar  
    35    17    18 2   
    36    18    40 1   
    37    19    20 ar  
    38    19    41 1   
    39    20    21 ar  
    40    20    23 1   
    41    21    22 ar  
    42    21    24 1   
    43    22    42 1   
@<TRIPOS>SUBSTRUCTURE
     1 FQR         1 TEMP              0 ****  ****    0 ROOT
