@<TRIPOS>MOLECULE
FQR
   42    43     1     0     0
SMALL
abcg2


@<TRIPOS>ATOM
      1 O1           3.2160    -5.9970    -2.4590 os         1 FQR      -0.437100
      2 C2           2.6090    -5.8990    -3.6400 c          1 FQR       0.541100
      3 C3           3.4320    -6.4930    -4.7750 c3         1 FQR       0.125500
      4 O4           1.5080    -5.4340    -3.7910 o          1 FQR      -0.483000
      5 C5           3.8180    -5.3870    -5.7620 c3         1 FQR       0.184300
      6 C6           4.5460    -4.2400    -5.0730 c3         1 FQR      -0.138100
      7 N7           2.7050    -7.5550    -5.4440 n8         1 FQR      -0.982200
      8 O8           4.6280    -5.9920    -6.7440 oh         1 FQR      -0.637000
      9 C9           2.4530    -5.6840    -1.2960 c3         1 FQR       0.190800
     10 C10          1.5070    -6.7840    -0.9330 c2         1 FQR      -0.222200
     11 C11          1.5210    -8.0010    -1.4610 c2         1 FQR      -0.233200
     12 C12          0.5250    -9.0600    -1.1110 c3         1 FQR       0.133200
     13 N13         -0.4610    -9.2390    -2.1870 n          1 FQR      -0.333300
     14 C14         -0.0580    -9.8410    -3.3640 c          1 FQR       0.574600
     15 C15         -1.1050    -9.9230    -4.3740 ca         1 FQR      -0.191600
     16 C16         -2.3740    -9.4060    -4.0910 ca         1 FQR       0.184400
     17 N17         -2.6700    -8.8210    -2.8870 nc         1 FQR      -0.616100
     18 C18         -1.7260    -8.7640    -2.0220 cd         1 FQR       0.510800
     19 C19         -0.8390   -10.5060    -5.6120 ca         1 FQR      -0.034000
     20 C20         -1.8280   -10.5790    -6.5650 ca         1 FQR       0.107000
     21 C21         -3.1060   -10.0640    -6.2870 ca         1 FQR       0.009100
     22 C22         -3.3760    -9.4860    -5.0670 ca         1 FQR      -0.071000
     23 CL2         -1.4790   -11.3030    -8.0850 cl         1 FQR      -0.157000
     24 BR2         -4.4660   -10.1550    -7.5710 br         1 FQR      -0.052100
     25 O25          1.0800   -10.2500    -3.5110 o          1 FQR      -0.536000
     26 H1           4.3520    -6.9160    -4.3640 h1         1 FQR       0.096700
     27 H2           2.8940    -4.9940    -6.2110 h1         1 FQR       0.042700
     28 H3           3.9030    -3.7090    -4.3690 hc         1 FQR       0.045033
     29 H4           5.4260    -4.5950    -4.5340 hc         1 FQR       0.045033
     30 H5           4.8730    -3.5040    -5.8090 hc         1 FQR       0.045033
     31 H6           2.5910    -8.3540    -4.8340 hn         1 FQR       0.416000
     32 H7           1.7780    -7.2400    -5.7040 hn         1 FQR       0.416000
     33 H9           4.8670    -5.3160    -7.3860 ho         1 FQR       0.441000
     34 H10          3.1830    -5.5320    -0.4990 h1         1 FQR       0.073700
     35 H11          1.9090    -4.7450    -1.4190 h1         1 FQR       0.073700
     36 H12          0.7760    -6.5250    -0.1730 ha         1 FQR       0.177000
     37 H13          2.2610    -8.2720    -2.2040 ha         1 FQR       0.198000
     38 H14         -0.0230    -8.8000    -0.2070 h1         1 FQR       0.067200
     39 H15          1.0100   -10.0200    -0.9330 h1         1 FQR       0.067200
     40 H16         -1.9230    -8.3070    -1.0590 h5         1 FQR       0.049800
     41 H17          0.1460   -10.8990    -5.8240 ha         1 FQR       0.155000
     42 H18         -4.3550    -9.0850    -4.8400 ha         1 FQR       0.153000
@<TRIPOS>BOND
     1     1     2 1   
     2     1     9 1   
     3     2     3 1   
     4     2     4 2   
     5     3     5 1   
     6     3     7 1   
     7     3    26 1   
     8     5     6 1   
     9     5     8 1   
    10     5    27 1   
    11     6    28 1   
    12     6    29 1   
    13     6    30 1   
    14     7    31 1   
    15     7    32 1   
    16     8    33 1   
    17     9    10 1   
    18     9    34 1   
    19     9    35 1   
    20    10    11 2   
    21    10    36 1   
    22    11    12 1   
    23    11    37 1   
    24    12    13 1   
    25    12    38 1   
    26    12    39 1   
    27    13    14 1   
    28    13    18 1   
    29    14    15 1   
    30    14    25 2   
    31    15    16 ar  
    32    15    19 ar  
    33    16    17 1   
    34    16    22 ar  
    35    17    18 2   
    36    18    40 1   
    37    19    20 ar  
    38    19    41 1   
    39    20    21 ar  
    40    20    23 1   
    41    21    22 ar  
    42    21    24 1   
    43    22    42 1   
@<TRIPOS>SUBSTRUCTURE
     1 FQR         1 TEMP              0 ****  ****    0 ROOT
