@<TRIPOS>MOLECULE
FQT
   85    86     1     0     0
SMALL
No Charge or Current Charge


@<TRIPOS>ATOM
      1 N01         -7.3660     5.2060     3.5940 nv         1 FQT      -0.931000
      2 C02         -7.1670     3.9920     3.0080 c2         1 FQT       0.249600
      3 C03         -8.1080     3.0820     2.8680 c2         1 FQT      -0.411200
      4 C04         -7.7960     1.7610     2.2020 c6         1 FQT       0.177200
      5 N05         -6.3870     1.6490     1.7400 n          1 FQT      -0.408800
      6 C06         -5.9830     0.3480     1.1530 c5         1 FQT       0.348700
      7 O13         -2.2680    -2.7340    -1.1240 o          1 FQT      -0.853000
      8 O14         -0.4310    -0.9300    -1.5210 os         1 FQT      -0.684800
      9 C08         -4.0340    -0.8380     0.5870 c5         1 FQT       0.164300
     10 C09         -2.6800    -0.0910     0.3510 c3         1 FQT       0.216600
     11 C19          2.0140    -0.1200    -3.4900 c3         1 FQT       0.220600
     12 C20          2.5300     0.1270    -2.0420 c3         1 FQT       0.161300
     13 C21          3.8960     0.8740    -2.0860 c3         1 FQT       0.147600
     14 C23          5.6320     1.6550    -0.6030 c          1 FQT       0.594100
     15 C28          3.1450    -2.5650     0.5020 c3         1 FQT      -0.141400
     16 C29          4.6370    -2.4290     0.8830 c3         1 FQT      -0.064400
     17 C30          5.2390    -3.7320     1.4490 c3         1 FQT      -0.077400
     18 C31          6.7170    -3.5780     1.8640 c3         1 FQT      -0.075400
     19 C32          7.3330    -4.8790     2.4120 c3         1 FQT      -0.086100
     20 C33         -5.0110    -0.8050    -0.6500 c5         1 FQT       0.100300
     21 C35         -5.7680     0.5260    -0.3870 c5         1 FQT       0.076300
     22 C37         -5.4380     2.6810     1.9450 c          1 FQT       0.619000
     23 N39         -5.8870     3.8100     2.5750 ns         1 FQT      -0.438100
     24 O07         -4.7480    -0.1780     1.6760 os         1 FQT      -0.421000
     25 O10         -1.5600    -0.9680     0.5660 os         1 FQT      -0.558400
     26 O12         -0.0770    -2.9390     0.0060 o          1 FQT      -0.853000
     27 O16         -1.6070    -1.4030    -3.7350 o          1 FQT      -0.850000
     28 O17          0.4320    -2.7120    -3.1910 o          1 FQT      -0.850000
     29 O18          0.5790    -0.1910    -3.5630 os         1 FQT      -0.565400
     30 O22          4.4530     0.9780    -0.7600 os         1 FQT      -0.436100
     31 O24          6.1990     2.2750    -1.4930 o          1 FQT      -0.508000
     32 O25          2.7330    -1.1550    -1.3980 os         1 FQT      -0.442100
     33 O27          2.2170    -0.3320     0.6950 o          1 FQT      -0.491000
     34 O34         -5.9530    -1.8880    -0.6720 oh         1 FQT      -0.719000
     35 O36         -6.9820     0.6050    -1.1690 oh         1 FQT      -0.728000
     36 O38         -4.2800     2.6240     1.5670 o          1 FQT      -0.533000
     37 P11         -1.0880    -2.0070    -0.5740 p5         1 FQT       1.456800
     38 P15         -0.3020    -1.4260    -3.0090 p5         1 FQT       1.459800
     39 H1          -6.7710     5.9720     3.2890 hn         1 FQT       0.434500
     40 H011        -8.3310     5.4610     3.7880 hn         1 FQT       0.434500
     41 H031        -9.1270     3.2400     3.2200 ha         1 FQT       0.176000
     42 H041        -8.0030     0.9440     2.9100 h1         1 FQT       0.045200
     43 H2          -8.4660     1.6220     1.3410 h1         1 FQT       0.045200
     44 H061        -6.7920    -0.3670     1.3490 h2         1 FQT       0.048700
     45 H081        -3.8210    -1.8730     0.8870 h1         1 FQT       0.090700
     46 H092        -2.6570     0.3190    -0.6670 h1         1 FQT       0.021200
     47 H091        -2.6070     0.7580     1.0410 h1         1 FQT       0.021200
     48 H192         2.3510     0.7080    -4.1270 h1         1 FQT       0.019700
     49 H191         2.4710    -1.0330    -3.8940 h1         1 FQT       0.019700
     50 H201         1.7940     0.7460    -1.5140 h1         1 FQT       0.086700
     51 H211         4.5840     0.3280    -2.7450 h1         1 FQT       0.055200
     52 H212         3.7380     1.8720    -2.5160 h1         1 FQT       0.055200
     53 H282         2.5720    -2.8560     1.3890 hc         1 FQT       0.071200
     54 H281         3.0630    -3.3280    -0.2800 hc         1 FQT       0.071200
     55 H292         5.2070    -2.1220    -0.0030 hc         1 FQT       0.051200
     56 H291         4.7460    -1.6280     1.6260 hc         1 FQT       0.051200
     57 H301         4.6530    -4.0530     2.3200 hc         1 FQT       0.036200
     58 H302         5.1550    -4.5250     0.6960 hc         1 FQT       0.036200
     59 H311         7.3040    -3.2430     1.0000 hc         1 FQT       0.036700
     60 H312         6.7970    -2.7980     2.6320 hc         1 FQT       0.036700
     61 H321         6.7900    -5.2200     3.3010 hc         1 FQT       0.023700
     62 H323         7.2970    -5.6720     1.6560 hc         1 FQT       0.023700
     63 H322         8.3810    -4.7160     2.6910 hc         1 FQT       0.023700
     64 H331        -4.4580    -0.7680    -1.5990 h1         1 FQT       0.053700
     65 H351        -5.1110     1.3830    -0.5950 h1         1 FQT       0.090700
     66 H391        -5.2020     4.5320     2.7340 hn         1 FQT       0.338500
     67 H341        -6.7690    -1.4700    -1.0450 ho         1 FQT       0.496000
     68 H361        -7.3510     1.5120    -1.0490 ho         1 FQT       0.497000
     69 C1           6.1490     1.5660     0.8350 c3         1 FQT      -0.143400
     70 C2           7.3230     0.5650     0.9470 c3         1 FQT      -0.067400
     71 C3           7.7930     0.3370     2.4010 c3         1 FQT      -0.078400
     72 C4           9.0390    -0.5710     2.4970 c3         1 FQT      -0.075400
     73 C5           9.4600    -0.8660     3.9490 c3         1 FQT      -0.087100
     74 H5           6.4960     2.5570     1.1510 hc         1 FQT       0.071200
     75 H6           5.3380     1.2220     1.4890 hc         1 FQT       0.071200
     76 H7           7.0230    -0.3980     0.5150 hc         1 FQT       0.049700
     77 H8           8.1650     0.9340     0.3470 hc         1 FQT       0.049700
     78 H9           8.0200     1.3050     2.8650 hc         1 FQT       0.037200
     79 H10          6.9730    -0.1110     2.9760 hc         1 FQT       0.037200
     80 H11          8.8450    -1.5200     1.9840 hc         1 FQT       0.036200
     81 H12          9.8770    -0.0930     1.9740 hc         1 FQT       0.036200
     82 H13          9.7050     0.0620     4.4790 hc         1 FQT       0.027367
     83 H14          8.6520    -1.3740     4.4900 hc         1 FQT       0.027367
     84 H15         10.3440    -1.5150     3.9670 hc         1 FQT       0.027367
     85 C26          2.6030    -1.2390    -0.0320 c          1 FQT       0.625100
@<TRIPOS>BOND
     1     1     2 1   
     2     1    39 1   
     3     1    40 1   
     4     2     3 2   
     5     2    23 1   
     6     3     4 1   
     7     3    41 1   
     8     4     5 1   
     9     4    42 1   
    10     4    43 1   
    11     5     6 1   
    12     5    22 1   
    13     6    21 1   
    14     6    24 1   
    15     6    44 1   
    16     7    37 1   
    17     8    37 1   
    18     8    38 1   
    19     9    10 1   
    20     9    20 1   
    21     9    24 1   
    22     9    45 1   
    23    10    25 1   
    24    10    46 1   
    25    10    47 1   
    26    11    12 1   
    27    11    29 1   
    28    11    48 1   
    29    11    49 1   
    30    12    13 1   
    31    12    32 1   
    32    12    50 1   
    33    13    30 1   
    34    13    51 1   
    35    13    52 1   
    36    14    30 1   
    37    14    31 2   
    38    14    69 1   
    39    15    16 1   
    40    15    53 1   
    41    15    54 1   
    42    15    85 1   
    43    16    17 1   
    44    16    55 1   
    45    16    56 1   
    46    17    18 1   
    47    17    57 1   
    48    17    58 1   
    49    18    19 1   
    50    18    59 1   
    51    18    60 1   
    52    19    61 1   
    53    19    62 1   
    54    19    63 1   
    55    20    21 1   
    56    20    34 1   
    57    20    64 1   
    58    21    35 1   
    59    21    65 1   
    60    22    23 1   
    61    22    36 2   
    62    23    66 1   
    63    25    37 1   
    64    26    37 1   
    65    27    38 1   
    66    28    38 1   
    67    29    38 1   
    68    32    85 1   
    69    33    85 2   
    70    34    67 1   
    71    35    68 1   
    72    69    70 1   
    73    69    74 1   
    74    69    75 1   
    75    70    71 1   
    76    70    76 1   
    77    70    77 1   
    78    71    72 1   
    79    71    78 1   
    80    71    79 1   
    81    72    73 1   
    82    72    80 1   
    83    72    81 1   
    84    73    82 1   
    85    73    83 1   
    86    73    84 1   
@<TRIPOS>SUBSTRUCTURE
     1 FQT         1 TEMP              0 ****  ****    0 ROOT
