@<TRIPOS>MOLECULE
FQT
   85    86     1     0     0
SMALL
bcc


@<TRIPOS>ATOM
      1 N01         -6.6830     5.4830     1.4490 nv         1 FQT      -0.820600
      2 C02         -6.3810     4.1480     1.6280 c2         1 FQT       0.249600
      3 C03         -6.3440     3.4700     2.7780 c2         1 FQT      -0.361200
      4 C04         -5.8190     2.0730     2.7560 c6         1 FQT       0.177200
      5 N05         -6.1330     1.4160     1.4810 n          1 FQT      -0.475800
      6 C06         -6.0500    -0.0190     1.4740 c5         1 FQT       0.325500
      7 O13         -2.8510    -0.4160    -3.5950 o          1 FQT      -0.853000
      8 O14         -0.9250    -0.3200    -1.8760 os         1 FQT      -0.684800
      9 C08         -4.8730    -1.6690     0.3170 c5         1 FQT       0.141100
     10 C09         -4.4230    -1.4430    -1.1120 c3         1 FQT       0.193400
     11 C19          2.5390     1.0920    -2.0620 c3         1 FQT       0.197400
     12 C20          3.5200     0.8620    -0.9280 c3         1 FQT       0.138100
     13 C21          4.8620     1.4870    -1.2340 c3         1 FQT       0.124400
     14 C23          6.9530     1.6860    -0.1570 c          1 FQT       0.643100
     15 C28          3.5040    -2.6630     0.1760 c3         1 FQT      -0.141400
     16 C29          3.1420    -3.4480     1.4260 c3         1 FQT      -0.064400
     17 C30          3.4170    -4.9360     1.2570 c3         1 FQT      -0.077400
     18 C31          3.0670    -5.7510     2.4960 c3         1 FQT      -0.075400
     19 C32          3.3490    -7.2370     2.3200 c3         1 FQT      -0.086100
     20 C33         -6.3280    -2.1130     0.4090 c5         1 FQT       0.077100
     21 C35         -7.0550    -0.7770     0.6040 c5         1 FQT       0.053100
     22 C37         -6.0230     2.1210     0.3150 c          1 FQT       0.828500
     23 N39         -6.0300     3.4860     0.4550 ns         1 FQT      -0.505100
     24 O07         -4.7740    -0.4670     1.0770 os         1 FQT      -0.374600
     25 O10         -3.0940    -0.9660    -1.0920 os         1 FQT      -0.535200
     26 O12         -1.8440    -2.6010    -2.6170 o          1 FQT      -0.853000
     27 O16         -0.3600     1.9760    -2.8920 o          1 FQT      -0.850000
     28 O17          0.4470    -0.2020    -4.0570 o          1 FQT      -0.850000
     29 O18          1.3360     0.4450    -1.7310 os         1 FQT      -0.542200
     30 O22          5.6870     1.2820    -0.0910 os         1 FQT      -0.412900
     31 O24          7.4240     2.2170    -1.1300 o          1 FQT      -0.557000
     32 O25          3.7180    -0.5450    -0.7840 os         1 FQT      -0.418900
     33 O27          2.7340    -0.6400     1.2280 o          1 FQT      -0.540000
     34 O34         -6.4870    -2.9380     1.5370 oh         1 FQT      -0.596800
     35 O36         -8.2730    -0.8920     1.2940 oh         1 FQT      -0.605800
     36 O38         -5.9430     1.6170    -0.7940 o          1 FQT      -0.608500
     37 P11         -2.2090    -1.1570    -2.4650 p5         1 FQT       1.456800
     38 P15          0.0950     0.5540    -2.8150 p5         1 FQT       1.459800
     39 H1          -7.3430     5.6670     0.7050 hn         1 FQT       0.379300
     40 H011        -6.9790     5.9380     2.2990 hn         1 FQT       0.379300
     41 H031        -6.6630     3.9150     3.7090 ha         1 FQT       0.126000
     42 H041        -4.7360     2.0310     2.9390 h1         1 FQT       0.045200
     43 H2          -6.2900     1.4940     3.5500 h1         1 FQT       0.045200
     44 H061        -6.2350    -0.3170     2.5130 h2         1 FQT       0.048700
     45 H081        -4.2200    -2.4250     0.7690 h1         1 FQT       0.090700
     46 H092        -4.5000    -2.4020    -1.6400 h1         1 FQT       0.021200
     47 H091        -5.0790    -0.7300    -1.6170 h1         1 FQT       0.021200
     48 H192         2.4000     2.1720    -2.1860 h1         1 FQT       0.019700
     49 H191         2.9570     0.7060    -3.0000 h1         1 FQT       0.019700
     50 H201         3.1160     1.2870    -0.0060 h1         1 FQT       0.086700
     51 H211         5.3100     1.0320    -2.1210 h1         1 FQT       0.055200
     52 H212         4.7320     2.5540    -1.4280 h1         1 FQT       0.055200
     53 H282         2.9320    -3.0290    -0.6840 hc         1 FQT       0.071200
     54 H281         4.5550    -2.8220    -0.0880 hc         1 FQT       0.071200
     55 H292         3.7080    -3.0680     2.2800 hc         1 FQT       0.051200
     56 H291         2.0860    -3.3000     1.6650 hc         1 FQT       0.051200
     57 H301         2.8520    -5.3190     0.4000 hc         1 FQT       0.036200
     58 H302         4.4740    -5.0860     1.0110 hc         1 FQT       0.036200
     59 H311         3.6310    -5.3680     3.3520 hc         1 FQT       0.036700
     60 H312         2.0110    -5.6040     2.7390 hc         1 FQT       0.036700
     61 H321         2.7720    -7.6500     1.4910 hc         1 FQT       0.023700
     62 H323         4.4040    -7.4140     2.1040 hc         1 FQT       0.023700
     63 H322         3.0940    -7.8040     3.2160 hc         1 FQT       0.023700
     64 H331        -6.6580    -2.6230    -0.5070 h1         1 FQT       0.053700
     65 H351        -7.1880    -0.2960    -0.3640 h1         1 FQT       0.090700
     66 H391        -5.9600     4.0140    -0.4020 hn         1 FQT       0.338500
     67 H341        -7.4000    -2.8420     1.8350 ho         1 FQT       0.397000
     68 H361        -8.9720    -1.0640     0.6560 ho         1 FQT       0.398000
     69 C1           7.6890     1.3990     1.1230 c3         1 FQT      -0.143400
     70 C2           9.1720     1.7250     1.0620 c3         1 FQT      -0.067400
     71 C3           9.8770     1.4160     2.3770 c3         1 FQT      -0.078400
     72 C4          11.3680     1.7230     2.3350 c3         1 FQT      -0.075400
     73 C5          12.0720     1.4130     3.6480 c3         1 FQT      -0.087100
     74 H5           7.2050     1.9680     1.9240 hc         1 FQT       0.071200
     75 H6           7.5360     0.3470     1.3820 hc         1 FQT       0.071200
     76 H7           9.6430     1.1560     0.2570 hc         1 FQT       0.049700
     77 H8           9.3090     2.7820     0.8160 hc         1 FQT       0.049700
     78 H9           9.4100     1.9880     3.1870 hc         1 FQT       0.037200
     79 H10          9.7320     0.3610     2.6310 hc         1 FQT       0.037200
     80 H11         11.8310     1.1510     1.5250 hc         1 FQT       0.036200
     81 H12         11.5130     2.7780     2.0800 hc         1 FQT       0.036200
     82 H13         11.6450     1.9900     4.4700 hc         1 FQT       0.027367
     83 H14         11.9770     0.3560     3.9060 hc         1 FQT       0.027367
     84 H15         13.1360     1.6460     3.5980 hc         1 FQT       0.027367
     85 C26          3.2610    -1.1830     0.2920 c          1 FQT       0.674100
@<TRIPOS>BOND
     1     1     2 1   
     2     1    39 1   
     3     1    40 1   
     4     2     3 2   
     5     2    23 1   
     6     3     4 1   
     7     3    41 1   
     8     4     5 1   
     9     4    42 1   
    10     4    43 1   
    11     5     6 1   
    12     5    22 1   
    13     6    21 1   
    14     6    24 1   
    15     6    44 1   
    16     7    37 1   
    17     8    37 1   
    18     8    38 1   
    19     9    10 1   
    20     9    20 1   
    21     9    24 1   
    22     9    45 1   
    23    10    25 1   
    24    10    46 1   
    25    10    47 1   
    26    11    12 1   
    27    11    29 1   
    28    11    48 1   
    29    11    49 1   
    30    12    13 1   
    31    12    32 1   
    32    12    50 1   
    33    13    30 1   
    34    13    51 1   
    35    13    52 1   
    36    14    30 1   
    37    14    31 2   
    38    14    69 1   
    39    15    16 1   
    40    15    53 1   
    41    15    54 1   
    42    15    85 1   
    43    16    17 1   
    44    16    55 1   
    45    16    56 1   
    46    17    18 1   
    47    17    57 1   
    48    17    58 1   
    49    18    19 1   
    50    18    59 1   
    51    18    60 1   
    52    19    61 1   
    53    19    62 1   
    54    19    63 1   
    55    20    21 1   
    56    20    34 1   
    57    20    64 1   
    58    21    35 1   
    59    21    65 1   
    60    22    23 1   
    61    22    36 2   
    62    23    66 1   
    63    25    37 1   
    64    26    37 1   
    65    27    38 1   
    66    28    38 1   
    67    29    38 1   
    68    32    85 1   
    69    33    85 2   
    70    34    67 1   
    71    35    68 1   
    72    69    70 1   
    73    69    74 1   
    74    69    75 1   
    75    70    71 1   
    76    70    76 1   
    77    70    77 1   
    78    71    72 1   
    79    71    78 1   
    80    71    79 1   
    81    72    73 1   
    82    72    80 1   
    83    72    81 1   
    84    73    82 1   
    85    73    83 1   
    86    73    84 1   
@<TRIPOS>SUBSTRUCTURE
     1 FQT         1 TEMP              0 ****  ****    0 ROOT
