@<TRIPOS>MOLECULE
FQU
   47    48     1     0     0
SMALL
abcg2


@<TRIPOS>ATOM
      1 C4          17.1160     0.7190   -20.1830 ca         1 FQU       0.182400
      2 C5          16.1200     1.5350   -20.7300 ca         1 FQU      -0.190600
      3 C6          15.3500     1.0860   -21.8020 ca         1 FQU      -0.034000
      4 C10         17.6740     2.3030   -18.6700 cc         1 FQU       0.507800
      5 C12         15.8960     2.8670   -20.1770 c          1 FQU       0.573600
      6 C15         17.4120     5.5500   -19.2910 c3         1 FQU      -0.096400
      7 C1          15.5640    -0.1670   -22.3280 ca         1 FQU       0.106000
      8 C2          16.5600    -0.9930   -21.7800 ca         1 FQU       0.009100
      9 C3          17.3260    -0.5560   -20.7230 ca         1 FQU      -0.072000
     10 CL7         14.6030    -0.7000   -23.6510 cl         1 FQU      -0.158000
     11 BR8         16.8650    -2.7040   -22.4790 br         1 FQU      -0.053100
     12 N9          17.8960     1.1280   -19.1320 nd         1 FQU      -0.618100
     13 N11         16.7320     3.1770   -19.1180 n          1 FQU      -0.336300
     14 O13         15.0600     3.6510   -20.5840 o          1 FQU      -0.525000
     15 C16         17.3100     6.9440   -18.6800 c3         1 FQU      -0.066400
     16 C17         15.8940     7.5170   -18.5960 c3         1 FQU      -0.078400
     17 C18         15.1030     7.4610   -19.8850 c3         1 FQU       0.156600
     18 O19         15.8410     8.1680   -20.8940 os         1 FQU      -0.445100
     19 C20         15.3770     8.1550   -22.1320 c          1 FQU       0.542100
     20 C21         16.2650     8.9190   -23.1070 c3         1 FQU       0.120500
     21 O22         14.3630     7.5890   -22.4630 o          1 FQU      -0.489000
     22 C23         15.5820    10.2470   -23.4610 c3         1 FQU       0.183300
     23 C24         15.2310    11.0670   -22.2260 c3         1 FQU      -0.136100
     24 N25         16.5440     8.1520   -24.3030 n8         1 FQU      -0.972200
     25 O26         16.4710    10.9430   -24.3030 oh         1 FQU      -0.638000
     26 H1          14.5860     1.7250   -22.2230 ha         1 FQU       0.155000
     27 H2          18.2690     2.6630   -17.8380 h5         1 FQU       0.049800
     28 H3          17.0280     4.4200   -17.4900 h1         1 FQU       0.062700
     29 H4          15.5820     4.7540   -18.4160 h1         1 FQU       0.062700
     30 H5          17.0650     5.5650   -20.3270 hc         1 FQU       0.055200
     31 H6          18.4640     5.2570   -19.3240 hc         1 FQU       0.055200
     32 H7          18.0960    -1.1810   -20.2920 ha         1 FQU       0.152000
     33 H8          17.7360     6.9320   -17.6740 hc         1 FQU       0.048200
     34 H9          17.9410     7.6170   -19.2640 hc         1 FQU       0.048200
     35 H10         15.9470     8.5500   -18.2430 hc         1 FQU       0.049700
     36 H11         15.3070     6.9790   -17.8470 hc         1 FQU       0.049700
     37 H12         14.1250     7.9280   -19.7500 h1         1 FQU       0.059200
     38 H13         14.9360     6.4310   -20.2090 h1         1 FQU       0.059200
     39 H14         17.2130     9.1480   -22.6120 h1         1 FQU       0.094700
     40 H15         14.6490    10.0090   -23.9950 h1         1 FQU       0.039700
     41 H16         14.4630    10.5880   -21.6190 hc         1 FQU       0.045367
     42 H17         16.1080    11.2370   -21.5980 hc         1 FQU       0.045367
     43 H18         14.8310    12.0390   -22.5210 hc         1 FQU       0.045367
     44 H19         17.0570     7.3130   -24.0660 hn         1 FQU       0.409500
     45 H20         15.6780     7.8490   -24.7330 hn         1 FQU       0.409500
     46 H22         16.0520    11.7730   -24.5550 ho         1 FQU       0.441000
     47 C14         16.6370     4.5020   -18.5040 c3         1 FQU       0.091000
@<TRIPOS>BOND
     1     1     2 ar  
     2     1     9 ar  
     3     1    12 1   
     4     2     3 ar  
     5     2     5 1   
     6     3     7 ar  
     7     3    26 1   
     8     4    12 2   
     9     4    13 1   
    10     4    27 1   
    11     5    13 1   
    12     5    14 2   
    13     6    15 1   
    14     6    30 1   
    15     6    31 1   
    16     6    47 1   
    17     7     8 ar  
    18     7    10 1   
    19     8     9 ar  
    20     8    11 1   
    21     9    32 1   
    22    13    47 1   
    23    15    16 1   
    24    15    33 1   
    25    15    34 1   
    26    16    17 1   
    27    16    35 1   
    28    16    36 1   
    29    17    18 1   
    30    17    37 1   
    31    17    38 1   
    32    18    19 1   
    33    19    20 1   
    34    19    21 2   
    35    20    22 1   
    36    20    24 1   
    37    20    39 1   
    38    22    23 1   
    39    22    25 1   
    40    22    40 1   
    41    23    41 1   
    42    23    42 1   
    43    23    43 1   
    44    24    44 1   
    45    24    45 1   
    46    25    46 1   
    47    28    47 1   
    48    29    47 1   
@<TRIPOS>SUBSTRUCTURE
     1 FQU         1 TEMP              0 ****  ****    0 ROOT
