@<TRIPOS>MOLECULE
FQU
   47    48     1     0     0
SMALL
No Charge or Current Charge


@<TRIPOS>ATOM
      1 C4          17.2850     0.4810   -20.0360 ca         1 FQU       0.182400
      2 C5          16.1210     1.1160   -20.5020 ca         1 FQU      -0.190600
      3 C6          15.2530     0.4470   -21.3940 ca         1 FQU      -0.034000
      4 C10         17.8750     2.3170   -18.7720 cc         1 FQU       0.507800
      5 C12         15.8240     2.4950   -20.0420 c          1 FQU       0.573600
      6 C15         17.3010     5.4800   -19.4510 c3         1 FQU      -0.096400
      7 C1          15.5440    -0.8570   -21.8230 ca         1 FQU       0.106000
      8 C2          16.7080    -1.4970   -21.3600 ca         1 FQU       0.009100
      9 C3          17.5670    -0.8260   -20.4730 ca         1 FQU      -0.072000
     10 Cl7         14.4400    -1.6640   -22.9370 cl         1 FQU      -0.158000
     11 Br8         17.1510    -3.2790   -21.9170 br         1 FQU      -0.053100
     12 N9          18.1930     1.0770   -19.1530 nd         1 FQU      -0.618100
     13 N11         16.7580     3.0410   -19.1640 n          1 FQU      -0.336300
     14 O13         14.8310     3.1040   -20.4180 o          1 FQU      -0.525000
     15 C16         17.1280     6.9250   -18.9200 c3         1 FQU      -0.066400
     16 C17         15.6710     7.4610   -18.9010 c3         1 FQU      -0.078400
     17 C18         14.9470     7.4500   -20.2660 c3         1 FQU       0.156600
     18 O19         15.7120     8.2510   -21.1830 os         1 FQU      -0.445100
     19 C20         15.2420     8.3980   -22.4630 c          1 FQU       0.542100
     20 C21         16.1850     9.2880   -23.3390 c3         1 FQU       0.120500
     21 O22         14.2200     7.8680   -22.8840 o          1 FQU      -0.489000
     22 C23         15.7630    10.7980   -23.2510 c3         1 FQU       0.183300
     23 C24         15.6350    11.3420   -21.8100 c3         1 FQU      -0.136100
     24 N25         16.3330     8.8100   -24.7730 n8         1 FQU      -0.972200
     25 O26         16.7130    11.6240   -23.9450 oh         1 FQU      -0.638000
     26 H1          14.3500     0.9340   -21.7580 ha         1 FQU       0.155000
     27 H2          18.5270     2.8470   -18.0890 h5         1 FQU       0.049800
     28 H3          16.8900     4.4430   -17.5940 h1         1 FQU       0.062700
     29 H4          15.4720     4.6390   -18.6220 h1         1 FQU       0.062700
     30 H5          16.9800     5.4330   -20.4990 hc         1 FQU       0.055200
     31 H6          18.3710     5.2370   -19.4480 hc         1 FQU       0.055200
     32 H7          18.4650    -1.3250   -20.1180 ha         1 FQU       0.152000
     33 H8          17.5340     6.9780   -17.9010 hc         1 FQU       0.048200
     34 H9          17.7470     7.5970   -19.5280 hc         1 FQU       0.048200
     35 H10         15.6820     8.4900   -18.5220 hc         1 FQU       0.049700
     36 H11         15.0770     6.8820   -18.1830 hc         1 FQU       0.049700
     37 H12         13.9370     7.8620   -20.1400 h1         1 FQU       0.059200
     38 H13         14.8490     6.4180   -20.6290 h1         1 FQU       0.059200
     39 H14         17.1740     9.2120   -22.8660 h1         1 FQU       0.094700
     40 H15         14.7780    10.8970   -23.7290 h1         1 FQU       0.039700
     41 H16         14.8230    10.8410   -21.2700 hc         1 FQU       0.045367
     42 H17         16.5670    11.1920   -21.2510 hc         1 FQU       0.045367
     43 H18         15.4090    12.4150   -21.8190 hc         1 FQU       0.045367
     44 H19         16.6380     7.8290   -24.7740 hn         1 FQU       0.409500
     45 H20         15.4020     8.7650   -25.2050 hn         1 FQU       0.409500
     46 H22         16.3060    12.5120   -24.0400 ho         1 FQU       0.441000
     47 C14         16.5450     4.4090   -18.6370 c3         1 FQU       0.091000
@<TRIPOS>BOND
     1     1     2 ar  
     2     1     9 ar  
     3     1    12 1   
     4     2     3 ar  
     5     2     5 1   
     6     3     7 ar  
     7     3    26 1   
     8     4    12 2   
     9     4    13 1   
    10     4    27 1   
    11     5    13 1   
    12     5    14 2   
    13     6    15 1   
    14     6    30 1   
    15     6    31 1   
    16     6    47 1   
    17     7     8 ar  
    18     7    10 1   
    19     8     9 ar  
    20     8    11 1   
    21     9    32 1   
    22    13    47 1   
    23    15    16 1   
    24    15    33 1   
    25    15    34 1   
    26    16    17 1   
    27    16    35 1   
    28    16    36 1   
    29    17    18 1   
    30    17    37 1   
    31    17    38 1   
    32    18    19 1   
    33    19    20 1   
    34    19    21 2   
    35    20    22 1   
    36    20    24 1   
    37    20    39 1   
    38    22    23 1   
    39    22    25 1   
    40    22    40 1   
    41    23    41 1   
    42    23    42 1   
    43    23    43 1   
    44    24    44 1   
    45    24    45 1   
    46    25    46 1   
    47    28    47 1   
    48    29    47 1   
@<TRIPOS>SUBSTRUCTURE
     1 FQU         1 TEMP              0 ****  ****    0 ROOT
