@<TRIPOS>MOLECULE
FQV
   26    26     1     0     0
SMALL
abcg2


@<TRIPOS>ATOM
      1 C2          -5.5930     0.7840    -0.2250 c1         1 FQV      -0.086100
      2 C3          -4.4090     0.7590    -0.4410 c1         1 FQV      -0.167100
      3 C8           1.5070     0.5120    -0.9750 ca         1 FQV       0.003000
      4 C14          1.9430    -0.3050     1.2540 ca         1 FQV       0.003000
      5 C7           0.1440     0.4790    -0.7200 ca         1 FQV      -0.134000
      6 C15          0.5860    -0.3370     1.5050 ca         1 FQV      -0.134000
      7 C9           2.3980     0.1260     0.0120 ca         1 FQV      -0.281500
      8 C6          -0.3260     0.0580     0.5200 ca         1 FQV       0.024000
      9 C1          -7.0240     0.8150     0.0290 c3         1 FQV      -0.012000
     10 C4          -2.9790     0.7080    -0.6640 c3         1 FQV       0.219700
     11 N12          4.5910     1.4780     0.5920 n8         1 FQV      -1.005100
     12 O11          4.7690    -0.9830     0.3410 o          1 FQV      -0.544000
     13 O13          4.3310     0.3510    -1.7290 o          1 FQV      -0.544000
     14 S10          4.1360     0.1630    -0.2980 sy         1 FQV       1.129600
     15 SE5         -2.1640    -0.0200     0.9740 ss         1 FQV      -0.274000
     16 H1           1.8550     0.8420    -1.9440 ha         1 FQV       0.138500
     17 H2           2.6340    -0.6120     2.0270 ha         1 FQV       0.138500
     18 H3          -0.5290     0.7830    -1.5080 ha         1 FQV       0.124500
     19 H4           0.2440    -0.6740     2.4760 ha         1 FQV       0.124500
     20 H5          -7.2620     1.4960     0.8460 hc         1 FQV       0.057033
     21 H6          -7.5700     1.1470    -0.8540 hc         1 FQV       0.057033
     22 H7          -7.3940    -0.1740     0.2990 hc         1 FQV       0.057033
     23 H8          -2.7380     0.0610    -1.5100 h1         1 FQV       0.078700
     24 H9          -2.5760     1.7040    -0.8600 h1         1 FQV       0.078700
     25 H10          5.5860     1.4660     0.7960 hn         1 FQV       0.473500
     26 H11          4.3310     2.3570     0.1560 hn         1 FQV       0.473500
@<TRIPOS>BOND
     1     1     2 3   
     2     1     9 1   
     3     2    10 1   
     4     3     5 ar  
     5     3     7 ar  
     6     3    16 1   
     7     4     6 ar  
     8     4     7 ar  
     9     4    17 1   
    10     5     8 ar  
    11     5    18 1   
    12     6     8 ar  
    13     6    19 1   
    14     7    14 1   
    15     8    15 1   
    16     9    20 1   
    17     9    21 1   
    18     9    22 1   
    19    10    15 1   
    20    10    23 1   
    21    10    24 1   
    22    11    14 1   
    23    11    25 1   
    24    11    26 1   
    25    12    14 2   
    26    13    14 2   
@<TRIPOS>SUBSTRUCTURE
     1 FQV         1 TEMP              0 ****  ****    0 ROOT
