@<TRIPOS>MOLECULE
FQV
   26    26     1     0     0
SMALL
No Charge or Current Charge


@<TRIPOS>ATOM
      1 C2          -5.6590     0.7380    -0.2180 c1         1 FQV      -0.086100
      2 C3          -4.4590     0.7170    -0.3730 c1         1 FQV      -0.167100
      3 C8           1.5070     0.6350    -0.9210 ca         1 FQV       0.003000
      4 C14          1.9030    -0.3690     1.2630 ca         1 FQV       0.003000
      5 C7           0.1210     0.6100    -0.6810 ca         1 FQV      -0.134000
      6 C15          0.5170    -0.3910     1.4960 ca         1 FQV      -0.134000
      7 C9           2.4020     0.1440     0.0490 ca         1 FQV      -0.281500
      8 C6          -0.3820     0.0940     0.5310 ca         1 FQV       0.024000
      9 C1          -7.1080     0.7510     0.0020 c3         1 FQV      -0.012000
     10 C4          -3.0040     0.7250    -0.5690 c3         1 FQV       0.219700
     11 N12          4.6190     1.6290     0.3290 n8         1 FQV      -1.005100
     12 O11          4.8690    -0.7730     0.6100 o          1 FQV      -0.544000
     13 O13          4.4530     0.2790    -1.6860 o          1 FQV      -0.544000
     14 S10          4.1710     0.1750    -0.2560 sy         1 FQV       1.129600
     15 SE5         -2.1380     0.0290     0.9110 ss         1 FQV      -0.274000
     16 H1           1.8780     1.0390    -1.8620 ha         1 FQV       0.138500
     17 H2           2.5800    -0.7490     2.0260 ha         1 FQV       0.138500
     18 H3          -0.5410     0.9960    -1.4490 ha         1 FQV       0.124500
     19 H4           0.1390    -0.7890     2.4350 ha         1 FQV       0.124500
     20 H5          -7.3640     1.4370     0.8180 hc         1 FQV       0.057033
     21 H6          -7.6290     1.0780    -0.9060 hc         1 FQV       0.057033
     22 H7          -7.4620    -0.2530     0.2660 hc         1 FQV       0.057033
     23 H8          -2.7550     0.1240    -1.4530 h1         1 FQV       0.078700
     24 H9          -2.6680     1.7570    -0.7350 h1         1 FQV       0.078700
     25 H10          5.3770     1.3510     0.9480 hn         1 FQV       0.473500
     26 H11          5.1240     2.0000    -0.4720 hn         1 FQV       0.473500
@<TRIPOS>BOND
     1     1     2 3   
     2     1     9 1   
     3     2    10 1   
     4     3     5 ar  
     5     3     7 ar  
     6     3    16 1   
     7     4     6 ar  
     8     4     7 ar  
     9     4    17 1   
    10     5     8 ar  
    11     5    18 1   
    12     6     8 ar  
    13     6    19 1   
    14     7    14 1   
    15     8    15 1   
    16     9    20 1   
    17     9    21 1   
    18     9    22 1   
    19    10    15 1   
    20    10    23 1   
    21    10    24 1   
    22    11    14 1   
    23    11    25 1   
    24    11    26 1   
    25    12    14 2   
    26    13    14 2   
@<TRIPOS>SUBSTRUCTURE
     1 FQV         1 TEMP              0 ****  ****    0 ROOT
