@<TRIPOS>MOLECULE
FQX
   20    22     1     0     0
SMALL
bcc


@<TRIPOS>ATOM
      1 OAA         -4.1490     1.1080     0.0070 o          1 FQX      -0.531500
      2 CAJ         -3.0580     0.5990     0.0030 c          1 FQX       0.635500
      3 CAK         -2.9090    -0.9160    -0.0180 c          1 FQX       0.637500
      4 OAB         -3.8850    -1.6230    -0.0350 o          1 FQX      -0.537500
      5 NAH         -1.6390    -1.3850    -0.0170 ns         1 FQX      -0.463100
      6 CAN         -0.4820    -0.6330     0.0010 ca         1 FQX       0.044600
      7 CAE          0.7420    -1.2270     0.0040 ca         1 FQX      -0.098000
      8 CAO          1.8500    -0.3640     0.0180 ca         1 FQX      -0.186000
      9 NAP          3.1490    -0.6280     0.0230 na         1 FQX       0.269200
     10 OAC          3.8000    -1.6540     0.0180 o          1 FQX      -0.166000
     11 OAI          3.8040     0.5730     0.0350 os         1 FQX       0.028300
     12 NAF          2.9290     1.5980     0.0400 nc         1 FQX      -0.116500
     13 CAL          1.7430     1.0420     0.0300 ca         1 FQX      -0.006000
     14 CAD          0.4590     1.6390     0.0280 ca         1 FQX      -0.176000
     15 CAM         -0.6190     0.8070     0.0150 ca         1 FQX       0.112600
     16 NAG         -1.9020     1.3150     0.0130 ns         1 FQX      -0.468100
     17 HNAH        -1.5450    -2.3920    -0.0330 hn         1 FQX       0.338500
     18 HAE          0.8610    -2.3010    -0.0080 ha         1 FQX       0.173000
     19 HAD          0.3500     2.7140     0.0390 ha         1 FQX       0.171000
     20 HNAG        -2.0180     2.3190     0.0250 hn         1 FQX       0.338500
@<TRIPOS>BOND
     1     1     2 2   
     2     2     3 1   
     3     2    16 1   
     4     3     4 2   
     5     3     5 1   
     6     5     6 1   
     7     5    17 1   
     8     6     7 ar  
     9     6    15 ar  
    10     7     8 ar  
    11     7    18 1   
    12     8     9 2   
    13     8    13 ar  
    14     9    10 1   
    15     9    11 1   
    16    11    12 1   
    17    12    13 2   
    18    13    14 ar  
    19    14    15 ar  
    20    14    19 1   
    21    15    16 1   
    22    16    20 1   
@<TRIPOS>SUBSTRUCTURE
     1 FQX         1 TEMP              0 ****  ****    0 ROOT
