@<TRIPOS>MOLECULE
FQX
   20    22     1     0     0
SMALL
No Charge or Current Charge


@<TRIPOS>ATOM
      1 OAA         -4.2160     1.2030     0.0760 o          1 FQX      -0.456000
      2 CAJ         -3.1330     0.6310     0.0410 c          1 FQX       0.493000
      3 CAK         -2.9780    -0.9670    -0.0170 c          1 FQX       0.495000
      4 OAB         -3.9310    -1.7390    -0.0310 o          1 FQX      -0.462000
      5 NAH         -1.6720    -1.4240    -0.0510 ns         1 FQX      -0.396100
      6 CAN         -0.5050    -0.6270    -0.0400 ca         1 FQX       0.044600
      7 CAE          0.7760    -1.2130    -0.0770 ca         1 FQX      -0.080000
      8 CAO          1.8820    -0.3480    -0.0640 ca         1 FQX      -0.186000
      9 NAP          3.2150    -0.6300    -0.0870 na         1 FQX       0.499000
     10 OAC          3.6660    -1.6390     0.4690 o          1 FQX      -0.356000
     11 OAI          3.9690     0.5890    -0.0590 os         1 FQX      -0.110000
     12 NAF          2.9980     1.6800     0.0010 nc         1 FQX      -0.018000
     13 CAL          1.7660     1.0220    -0.0120 ca         1 FQX      -0.006000
     14 CAD          0.4950     1.6170     0.0270 ca         1 FQX      -0.158000
     15 CAM         -0.6420     0.7830     0.0120 ca         1 FQX       0.112600
     16 NAG         -1.9400     1.3340     0.0490 ns         1 FQX      -0.401100
     17 HNAH        -1.5510    -2.4300    -0.0880 hn         1 FQX       0.338500
     18 HAE          0.9040    -2.2940    -0.1150 ha         1 FQX       0.155000
     19 HAD          0.3940     2.6990     0.0680 ha         1 FQX       0.153000
     20 HNAG        -2.0150     2.3430     0.0850 hn         1 FQX       0.338500
@<TRIPOS>BOND
     1     1     2 2   
     2     2     3 1   
     3     2    16 1   
     4     3     4 2   
     5     3     5 1   
     6     5     6 1   
     7     5    17 1   
     8     6     7 ar  
     9     6    15 ar  
    10     7     8 ar  
    11     7    18 1   
    12     8     9 2   
    13     8    13 ar  
    14     9    10 1   
    15     9    11 1   
    16    11    12 1   
    17    12    13 2   
    18    13    14 ar  
    19    14    15 ar  
    20    14    19 1   
    21    15    16 1   
    22    16    20 1   
@<TRIPOS>SUBSTRUCTURE
     1 FQX         1 TEMP              0 ****  ****    0 ROOT
