@<TRIPOS>MOLECULE
FQY
   34    35     1     0     0
SMALL
abcg2


@<TRIPOS>ATOM
      1 C4           2.2310     0.6110    -1.6190 ca         1 FQY      -0.001500
      2 C6           1.7710    -0.2320     0.5970 ca         1 FQY      -0.001500
      3 C5           0.8860     0.8990    -1.7810 ca         1 FQY      -0.128000
      4 C7           0.4320     0.0740     0.4360 ca         1 FQY      -0.128000
      5 C3           2.6650     0.0420    -0.4310 ca         1 FQY      -0.280500
      6 C8          -0.0240     0.6340    -0.7590 ca         1 FQY       0.031000
      7 C13         -4.8090    -2.2420     0.5950 c6         1 FQY      -0.077400
      8 C12         -5.0620    -0.7830     0.9600 c6         1 FQY      -0.074900
      9 C14         -3.3190    -2.5630     0.6270 c6         1 FQY      -0.074900
     10 C11         -4.2670     0.1670     0.0640 c6         1 FQY      -0.077400
     11 C15         -2.5260    -1.6180    -0.2760 c6         1 FQY      -0.077400
     12 C10         -2.7780    -0.1710     0.1270 c6         1 FQY       0.153300
     13 N16          4.8340     0.7480     0.8990 n8         1 FQY      -1.002100
     14 O1           4.4760    -1.6650     0.4480 o          1 FQY      -0.544500
     15 O17          5.0330    -0.2060    -1.5040 o          1 FQY      -0.544500
     16 S2           4.3680    -0.3750    -0.2200 sy         1 FQY       1.127600
     17 SE9         -1.8390     1.1080    -1.0440 ss         1 FQY      -0.323000
     18 H1           2.9220     0.8200    -2.4240 ha         1 FQY       0.138500
     19 H2           2.1080    -0.6710     1.5260 ha         1 FQY       0.138500
     20 H3           0.5530     1.3220    -2.7210 ha         1 FQY       0.127000
     21 H4          -0.2460    -0.1230     1.2550 ha         1 FQY       0.127000
     22 H6          -5.2000    -2.4390    -0.4090 hc         1 FQY       0.043700
     23 H7          -6.1260    -0.5480     0.8840 hc         1 FQY       0.043700
     24 H8          -4.7790    -0.6140     2.0040 hc         1 FQY       0.043700
     25 H9          -2.9490    -2.4820     1.6550 hc         1 FQY       0.043700
     26 H10         -3.1420    -3.5950     0.3160 hc         1 FQY       0.043700
     27 H11         -4.6240     0.0740    -0.9670 hc         1 FQY       0.054950
     28 H12         -4.4430     1.2000     0.3730 hc         1 FQY       0.054950
     29 H13         -1.4630    -1.8630    -0.2260 hc         1 FQY       0.054950
     30 H14         -2.8370    -1.7610    -1.3150 hc         1 FQY       0.054950
     31 H15         -2.4290     0.0010     1.1510 h1         1 FQY       0.065700
     32 H16          5.7030     0.4810     1.3530 hn         1 FQY       0.473000
     33 H17          4.9180     1.6800     0.5050 hn         1 FQY       0.473000
     34 H5          -5.3520    -2.9000     1.2760 hc         1 FQY       0.043700
@<TRIPOS>BOND
     1     1     3 ar  
     2     1     5 ar  
     3     1    18 1   
     4     2     4 ar  
     5     2     5 ar  
     6     2    19 1   
     7     3     6 ar  
     8     3    20 1   
     9     4     6 ar  
    10     4    21 1   
    11     5    16 1   
    12     6    17 1   
    13     7     8 1   
    14     7     9 1   
    15     7    22 1   
    16     7    34 1   
    17     8    10 1   
    18     8    23 1   
    19     8    24 1   
    20     9    11 1   
    21     9    25 1   
    22     9    26 1   
    23    10    12 1   
    24    10    27 1   
    25    10    28 1   
    26    11    12 1   
    27    11    29 1   
    28    11    30 1   
    29    12    17 1   
    30    12    31 1   
    31    13    16 1   
    32    13    32 1   
    33    13    33 1   
    34    14    16 2   
    35    15    16 2   
@<TRIPOS>SUBSTRUCTURE
     1 FQY         1 TEMP              0 ****  ****    0 ROOT
