@<TRIPOS>MOLECULE
FQY
   34    35     1     0     0
SMALL
No Charge or Current Charge


@<TRIPOS>ATOM
      1 C4           2.1500     0.3350    -1.4280 ca         1 FQY      -0.001500
      2 C6           1.7600    -0.0500     0.9490 ca         1 FQY      -0.001500
      3 C5           0.8080     0.7270    -1.5790 ca         1 FQY      -0.128000
      4 C7           0.4200     0.3430     0.7900 ca         1 FQY      -0.128000
      5 C3           2.6300    -0.0580    -0.1610 ca         1 FQY      -0.280500
      6 C8          -0.0610     0.7250    -0.4760 ca         1 FQY       0.031000
      7 C13         -4.7760    -2.2740     0.3150 c6         1 FQY      -0.077400
      8 C12         -5.0530    -0.8680     0.9040 c6         1 FQY      -0.074900
      9 C14         -3.2620    -2.5950     0.3250 c6         1 FQY      -0.074900
     10 C11         -4.2390     0.2200     0.1580 c6         1 FQY      -0.077400
     11 C15         -2.4520    -1.5020    -0.4180 c6         1 FQY      -0.077400
     12 C10         -2.7210    -0.0920     0.1730 c6         1 FQY       0.153300
     13 N16          5.0480     0.8480     0.4870 n8         1 FQY      -1.002100
     14 O1           4.4830    -1.4390     1.2040 o          1 FQY      -0.544500
     15 O17          4.9370    -0.8530    -1.2560 o          1 FQY      -0.544500
     16 S2           4.3410    -0.5580     0.0440 sy         1 FQY       1.127600
     17 SE9         -1.7630     1.2280    -0.7090 ss         1 FQY      -0.323000
     18 H1           2.8060     0.3380    -2.2980 ha         1 FQY       0.138500
     19 H2           2.1180    -0.3420     1.9350 ha         1 FQY       0.138500
     20 H3           0.4410     1.0280    -2.5570 ha         1 FQY       0.127000
     21 H4          -0.2350     0.3580     1.6560 ha         1 FQY       0.127000
     22 H6          -5.1590    -2.3260    -0.7140 hc         1 FQY       0.043700
     23 H7          -6.1260    -0.6420     0.8400 hc         1 FQY       0.043700
     24 H8          -4.7950    -0.8570     1.9720 hc         1 FQY       0.043700
     25 H9          -2.9080    -2.6760     1.3630 hc         1 FQY       0.043700
     26 H10         -3.0850    -3.5730    -0.1420 hc         1 FQY       0.043700
     27 H11         -4.5900     0.2980    -0.8800 hc         1 FQY       0.054950
     28 H12         -4.4210     1.1990     0.6220 hc         1 FQY       0.054950
     29 H13         -1.3820    -1.7400    -0.3560 hc         1 FQY       0.054950
     30 H14         -2.7110    -1.5110    -1.4850 hc         1 FQY       0.054950
     31 H15         -2.3890    -0.0840     1.2210 h1         1 FQY       0.065700
     32 H16          5.8130     0.8980    -0.1830 hn         1 FQY       0.473000
     33 H17          4.3830     1.5400     0.1490 hn         1 FQY       0.473000
     34 H5          -5.3230    -3.0330     0.8910 hc         1 FQY       0.043700
@<TRIPOS>BOND
     1     1     3 ar  
     2     1     5 ar  
     3     1    18 1   
     4     2     4 ar  
     5     2     5 ar  
     6     2    19 1   
     7     3     6 ar  
     8     3    20 1   
     9     4     6 ar  
    10     4    21 1   
    11     5    16 1   
    12     6    17 1   
    13     7     8 1   
    14     7     9 1   
    15     7    22 1   
    16     7    34 1   
    17     8    10 1   
    18     8    23 1   
    19     8    24 1   
    20     9    11 1   
    21     9    25 1   
    22     9    26 1   
    23    10    12 1   
    24    10    27 1   
    25    10    28 1   
    26    11    12 1   
    27    11    29 1   
    28    11    30 1   
    29    12    17 1   
    30    12    31 1   
    31    13    16 1   
    32    13    32 1   
    33    13    33 1   
    34    14    16 2   
    35    15    16 2   
@<TRIPOS>SUBSTRUCTURE
     1 FQY         1 TEMP              0 ****  ****    0 ROOT
