@<TRIPOS>MOLECULE
FQZ
   25    25     1     0     0
SMALL
No Charge or Current Charge


@<TRIPOS>ATOM
      1 O16          2.9470    -0.1730    -1.0940 o          1 FQZ      -0.734000
      2 C14          2.6090    -0.0220     0.0710 c          1 FQZ       0.722000
      3 O15          3.4010     0.0900     0.9950 o          1 FQZ      -0.734000
      4 C5           1.0960     0.0330     0.4000 c6         1 FQZ      -0.187700
      5 C6           0.3710    -1.2970     0.0480 c6         1 FQZ      -0.054400
      6 C1          -1.1410    -1.2560     0.4160 c6         1 FQZ      -0.064700
      7 C21         -1.8260    -2.6050     0.0520 c3         1 FQZ      -0.075100
      8 C4           0.3890     1.2420    -0.2790 c6         1 FQZ      -0.083400
      9 C3          -1.1090     1.3000     0.1090 c6         1 FQZ       0.124300
     10 O19         -1.7470     2.4150    -0.5350 oh         1 FQZ      -0.693000
     11 C2          -1.8300    -0.0340    -0.2680 c6         1 FQZ       0.179300
     12 O17         -3.2110     0.0660     0.1070 oh         1 FQZ      -0.680000
     13 H2           1.0150     0.1740     1.4880 hc         1 FQZ       0.025700
     14 H3           0.4830    -1.5080    -1.0250 hc         1 FQZ       0.046700
     15 H4           0.8580    -2.1280     0.5770 hc         1 FQZ       0.046700
     16 H5          -1.2310    -1.1480     1.5060 hc         1 FQZ       0.042700
     17 H6          -1.3170    -3.4490     0.5330 hc         1 FQZ       0.024367
     18 H7          -2.8720    -2.6280     0.3800 hc         1 FQZ       0.024367
     19 H8           0.8880     2.1740     0.0190 hc         1 FQZ       0.049700
     20 H9           0.4870     1.1690    -1.3720 hc         1 FQZ       0.049700
     21 H10         -1.1700     1.4260     1.2010 h1         1 FQZ       0.028700
     22 H11         -1.2440     3.2190    -0.2740 ho         1 FQZ       0.439000
     23 H12         -1.7550    -0.1650    -1.3580 h1         1 FQZ       0.035700
     24 H13         -3.4330     1.0080    -0.0720 ho         1 FQZ       0.444000
     25 H14         -1.8110    -2.7810    -1.0310 hc         1 FQZ       0.024367
@<TRIPOS>BOND
     1     1     2 1   
     2     2     3 1   
     3     2     4 1   
     4     4     5 1   
     5     4     8 1   
     6     4    13 1   
     7     5     6 1   
     8     5    14 1   
     9     5    15 1   
    10     6     7 1   
    11     6    11 1   
    12     6    16 1   
    13     7    17 1   
    14     7    18 1   
    15     7    25 1   
    16     8     9 1   
    17     8    19 1   
    18     8    20 1   
    19     9    10 1   
    20     9    11 1   
    21     9    21 1   
    22    10    22 1   
    23    11    12 1   
    24    11    23 1   
    25    12    24 1   
@<TRIPOS>SUBSTRUCTURE
     1 FQZ         1 TEMP              0 ****  ****    0 ROOT
