@<TRIPOS>MOLECULE
FQZ
   25    25     1     0     0
SMALL
bcc


@<TRIPOS>ATOM
      1 O16          3.0850    -1.1340    -0.3750 o          1 FQZ      -0.839300
      2 C14          2.6080    -0.0600     0.0420 c          1 FQZ       0.932600
      3 O15          3.2390     1.0030     0.2180 o          1 FQZ      -0.839300
      4 C5           1.1050    -0.0300     0.3980 c6         1 FQZ      -0.187700
      5 C6           0.3440    -1.2820    -0.0170 c6         1 FQZ      -0.054400
      6 C1          -1.1370    -1.2330     0.3590 c6         1 FQZ      -0.064700
      7 C21         -1.8470    -2.5080    -0.0820 c3         1 FQZ      -0.075100
      8 C4           0.4230     1.2130    -0.1730 c6         1 FQZ      -0.083400
      9 C3          -1.0470     1.2680     0.2140 c6         1 FQZ       0.101100
     10 O19         -1.7140     2.3710    -0.3770 oh         1 FQZ      -0.630800
     11 C2          -1.7850     0.0130    -0.2330 c6         1 FQZ       0.156100
     12 O17         -3.1410     0.0540     0.1560 oh         1 FQZ      -0.617800
     13 H2           1.0480     0.0460     1.4950 hc         1 FQZ       0.025700
     14 H3           0.4310    -1.4220    -1.1010 hc         1 FQZ       0.046700
     15 H4           0.7960    -2.1650     0.4390 hc         1 FQZ       0.046700
     16 H5          -1.2110    -1.1570     1.4520 hc         1 FQZ       0.042700
     17 H6          -1.3640    -3.3840     0.3550 hc         1 FQZ       0.024367
     18 H7          -2.8940    -2.5240     0.2180 hc         1 FQZ       0.024367
     19 H8           0.9280     2.1140     0.1820 hc         1 FQZ       0.049700
     20 H9           0.5050     1.2130    -1.2670 hc         1 FQZ       0.049700
     21 H10         -1.1190     1.3260     1.3120 h1         1 FQZ       0.028700
     22 H11         -1.3870     3.1780     0.0320 ho         1 FQZ       0.400000
     23 H12         -1.7010    -0.0510    -1.3330 h1         1 FQZ       0.035700
     24 H13         -3.5070     0.8910    -0.1510 ho         1 FQZ       0.405000
     25 H14         -1.8080    -2.6200    -1.1690 hc         1 FQZ       0.024367
@<TRIPOS>BOND
     1     1     2 1   
     2     2     3 1   
     3     2     4 1   
     4     4     5 1   
     5     4     8 1   
     6     4    13 1   
     7     5     6 1   
     8     5    14 1   
     9     5    15 1   
    10     6     7 1   
    11     6    11 1   
    12     6    16 1   
    13     7    17 1   
    14     7    18 1   
    15     7    25 1   
    16     8     9 1   
    17     8    19 1   
    18     8    20 1   
    19     9    10 1   
    20     9    11 1   
    21     9    21 1   
    22    10    22 1   
    23    11    12 1   
    24    11    23 1   
    25    12    24 1   
@<TRIPOS>SUBSTRUCTURE
     1 FQZ         1 TEMP              0 ****  ****    0 ROOT
