@<TRIPOS>MOLECULE
FR0
   40    43     1     0     0
SMALL
No Charge or Current Charge


@<TRIPOS>ATOM
      1 N1          -0.4290     1.2170    -4.6640 nc         1 FR0      -0.643100
      2 C2          -0.3430     0.9530    -6.0220 ca         1 FR0       0.105400
      3 C3           0.0750    -0.3300    -6.2610 ca         1 FR0      -0.087200
      4 N4           0.2750    -0.9470    -5.0580 na         1 FR0      -0.352600
      5 C5          -0.0510     0.0490    -4.1480 cd         1 FR0       0.648700
      6 C6          -0.6240     1.8190    -7.0900 ca         1 FR0      -0.067000
      7 C7          -0.4670     1.3390    -8.4090 ca         1 FR0      -0.127000
      8 C8          -0.0350     0.0110    -8.6400 ca         1 FR0      -0.109000
      9 C9           0.2430    -0.8430    -7.5530 ca         1 FR0      -0.111000
     10 N10          0.0020    -0.1020    -2.8150 nu         1 FR0      -0.887400
     11 C11          0.1660    -1.3480    -2.0830 c3         1 FR0       0.295100
     12 C12         -0.1020    -1.0770    -0.6340 cc         1 FR0      -0.253300
     13 S15          1.2070    -1.0900     0.5470 ss         1 FR0       0.251000
     14 C16          0.0740    -0.7210     1.8440 cc         1 FR0      -0.229500
     15 C17         -1.2130    -0.6070     1.3720 cd         1 FR0      -0.119000
     16 C18         -1.3090    -0.8110    -0.0310 cd         1 FR0      -0.117000
     17 C19          0.4390    -0.5600     3.2230 cc         1 FR0       0.397500
     18 N20         -0.4850    -0.2710     4.1910 nc         1 FR0      -0.792000
     19 C21          0.1210    -0.1850     5.3610 cd         1 FR0       0.734400
     20 S22          1.8680    -0.4330     5.3560 ss         1 FR0      -0.024400
     21 C23          1.7440    -0.6880     3.6250 cd         1 FR0      -0.298000
     22 N26         -0.4730     0.1050     6.5630 nf         1 FR0      -0.852700
     23 C27         -1.7140     0.1290     6.7250 c2         1 FR0       0.918100
     24 N28         -1.9890     0.6870     7.8260 nv         1 FR0      -1.073700
     25 N29         -2.4450     0.8500     5.9430 nv         1 FR0      -1.073700
     26 HN4          0.5910    -1.8830    -4.8550 hn         1 FR0       0.353000
     27 H6          -0.9550     2.8380    -6.9030 ha         1 FR0       0.126000
     28 H7          -0.6790     1.9940    -9.2510 ha         1 FR0       0.111000
     29 H8           0.0840    -0.3510    -9.6580 ha         1 FR0       0.110000
     30 H9           0.5760    -1.8660    -7.7150 ha         1 FR0       0.113000
     31 H10         -0.3620     0.6990    -2.3090 hn         1 FR0       0.507000
     32 H111         1.1870    -1.7350    -2.2100 h1         1 FR0       0.044700
     33 H112        -0.5390    -2.1060    -2.4500 h1         1 FR0       0.044700
     34 H17         -2.0710    -0.3860     2.0000 ha         1 FR0       0.141000
     35 H18         -2.2480    -0.7610    -0.5750 ha         1 FR0       0.131000
     36 H23          2.6210    -0.9100     3.0320 h4         1 FR0       0.161000
     37 H281        -2.4110     1.5560     7.5470 hn         1 FR0       0.506250
     38 H282        -1.0850     0.8380     8.2420 hn         1 FR0       0.506250
     39 H291        -1.9870     0.8010     5.0380 hn         1 FR0       0.506250
     40 H292        -3.3720     0.4500     5.8860 hn         1 FR0       0.506250
@<TRIPOS>BOND
     1     1     2 1   
     2     1     5 2   
     3     2     3 ar  
     4     2     6 ar  
     5     3     4 1   
     6     3     9 ar  
     7     4     5 1   
     8     4    26 1   
     9     5    10 1   
    10     6     7 ar  
    11     6    27 1   
    12     7     8 ar  
    13     7    28 1   
    14     8     9 ar  
    15     8    29 1   
    16     9    30 1   
    17    10    11 1   
    18    10    31 1   
    19    11    12 1   
    20    11    32 1   
    21    11    33 1   
    22    12    13 1   
    23    12    16 2   
    24    13    14 1   
    25    14    15 2   
    26    14    17 1   
    27    15    16 1   
    28    15    34 1   
    29    16    35 1   
    30    17    18 1   
    31    17    21 2   
    32    18    19 2   
    33    19    20 1   
    34    19    22 1   
    35    20    21 1   
    36    21    36 1   
    37    22    23 2   
    38    23    24 1   
    39    23    25 1   
    40    24    37 1   
    41    24    38 1   
    42    25    39 1   
    43    25    40 1   
@<TRIPOS>SUBSTRUCTURE
     1 FR0         1 TEMP              0 ****  ****    0 ROOT
