@<TRIPOS>MOLECULE
FR0
   40    43     1     0     0
SMALL
abcg2


@<TRIPOS>ATOM
      1 N1          -0.3040     1.3500    -4.8970 nc         1 FR0      -0.643100
      2 C2           0.0980     0.9240    -6.1410 ca         1 FR0       0.105400
      3 C3           0.2340    -0.4750    -6.1580 ca         1 FR0      -0.087200
      4 N4          -0.0990    -0.8710    -4.8810 na         1 FR0      -0.352600
      5 C5          -0.4050     0.2570    -4.1810 cd         1 FR0       0.648700
      6 C6           0.3660     1.6500    -7.2980 ca         1 FR0      -0.067000
      7 C7           0.7590     0.9540    -8.4330 ca         1 FR0      -0.127000
      8 C8           0.8850    -0.4380    -8.4290 ca         1 FR0      -0.109000
      9 C9           0.6230    -1.1800    -7.2830 ca         1 FR0      -0.111000
     10 N10         -0.7360     0.2400    -2.8680 nu         1 FR0      -0.887400
     11 C11         -1.1270    -0.9680    -2.1740 c3         1 FR0       0.295100
     12 C12         -1.1070    -0.7500    -0.6990 cc         1 FR0      -0.253300
     13 S15          0.2420     0.0150     0.0550 ss         1 FR0       0.251000
     14 C16         -0.4530    -0.1680     1.6260 cc         1 FR0      -0.229500
     15 C17         -1.6650    -0.7950     1.5510 cd         1 FR0      -0.119000
     16 C18         -2.0380    -1.1210     0.2210 cd         1 FR0      -0.117000
     17 C19          0.2130     0.3250     2.8190 cc         1 FR0       0.397500
     18 N20         -0.3760     0.0930     4.0340 nc         1 FR0      -0.792000
     19 C21          0.3200     0.5930     5.0230 cd         1 FR0       0.734400
     20 S22          1.7830     1.4000     4.4850 ss         1 FR0      -0.024400
     21 C23          1.3850     1.0150     2.8560 cd         1 FR0      -0.298000
     22 N26          0.0890     0.5800     6.3410 nf         1 FR0      -0.852700
     23 C27         -0.9710    -0.0230     6.8490 c2         1 FR0       0.918100
     24 N28         -1.0860    -0.0160     8.1880 nv         1 FR0      -1.073700
     25 N29         -1.9130    -0.6540     6.1450 nv         1 FR0      -1.073700
     26 HN4         -0.1360    -1.8220    -4.5520 hn         1 FR0       0.353000
     27 H6           0.2710     2.7290    -7.3100 ha         1 FR0       0.126000
     28 H7           0.9750     1.5000    -9.3430 ha         1 FR0       0.111000
     29 H8           1.1940    -0.9480    -9.3320 ha         1 FR0       0.110000
     30 H9           0.7210    -2.2580    -7.2760 ha         1 FR0       0.113000
     31 H10         -1.1780     1.0910    -2.5530 hn         1 FR0       0.507000
     32 H111        -0.4200    -1.7640    -2.4240 h1         1 FR0       0.044700
     33 H112        -2.1230    -1.3210    -2.4610 h1         1 FR0       0.044700
     34 H17         -2.2750    -1.0020     2.4180 ha         1 FR0       0.141000
     35 H18         -2.9630    -1.6130    -0.0430 ha         1 FR0       0.131000
     36 H23          2.0170     1.3140     2.0340 h4         1 FR0       0.161000
     37 H281        -1.9430    -0.2880     8.6390 hn         1 FR0       0.506250
     38 H282        -0.4740     0.5890     8.7070 hn         1 FR0       0.506250
     39 H291        -1.8130    -0.7010     5.1400 hn         1 FR0       0.506250
     40 H292        -2.6840    -1.1190     6.5910 hn         1 FR0       0.506250
@<TRIPOS>BOND
     1     1     2 1   
     2     1     5 2   
     3     2     3 ar  
     4     2     6 ar  
     5     3     4 1   
     6     3     9 ar  
     7     4     5 1   
     8     4    26 1   
     9     5    10 1   
    10     6     7 ar  
    11     6    27 1   
    12     7     8 ar  
    13     7    28 1   
    14     8     9 ar  
    15     8    29 1   
    16     9    30 1   
    17    10    11 1   
    18    10    31 1   
    19    11    12 1   
    20    11    32 1   
    21    11    33 1   
    22    12    13 1   
    23    12    16 2   
    24    13    14 1   
    25    14    15 2   
    26    14    17 1   
    27    15    16 1   
    28    15    34 1   
    29    16    35 1   
    30    17    18 1   
    31    17    21 2   
    32    18    19 2   
    33    19    20 1   
    34    19    22 1   
    35    20    21 1   
    36    21    36 1   
    37    22    23 2   
    38    23    24 1   
    39    23    25 1   
    40    24    37 1   
    41    24    38 1   
    42    25    39 1   
    43    25    40 1   
@<TRIPOS>SUBSTRUCTURE
     1 FR0         1 TEMP              0 ****  ****    0 ROOT
