@<TRIPOS>MOLECULE
FR1
   72    73     1     0     0
SMALL
bcc


@<TRIPOS>ATOM
      1 C1          -3.7020    -0.2560    -0.5450 ca         1 FR1      -0.106500
      2 C2          -4.8460     0.5090    -0.3800 ca         1 FR1      -0.105500
      3 C3          -6.0320    -0.0780     0.0500 ca         1 FR1      -0.101600
      4 C4          -7.3040     0.6960     0.2200 c          1 FR1       0.653700
      5 N5          -7.1700     1.9950     0.4880 ns         1 FR1      -0.520900
      6 O6          -8.3930     0.1400     0.1170 o          1 FR1      -0.649100
      7 C7          -6.0560    -1.4500     0.2900 ca         1 FR1      -0.105500
      8 C8          -4.9140    -2.2120     0.1290 ca         1 FR1      -0.106500
      9 C9          -3.7200    -1.6220    -0.2800 ca         1 FR1      -0.155600
     10 C10         -2.5230    -2.5020    -0.4580 c          1 FR1       0.687700
     11 O11         -2.6490    -3.7030    -0.6540 o          1 FR1      -0.623100
     12 N12         -1.3300    -1.8940    -0.3740 ns         1 FR1      -0.570900
     13 C13         -0.0770    -2.5870    -0.5710 c3         1 FR1       0.051700
     14 C14          0.3020    -2.6520    -2.0720 c3         1 FR1      -0.069700
     15 C15          0.5070    -1.2810    -2.7040 c3         1 FR1      -0.091600
     16 C16          1.5100    -3.5460    -2.3250 c3         1 FR1      -0.091600
     17 C17          0.9730    -1.8440     0.2450 c          1 FR1       0.671100
     18 O18          0.9310    -0.6200     0.3220 o          1 FR1      -0.623100
     19 N19          1.9510    -2.5420     0.8350 n          1 FR1      -0.463800
     20 C20          3.0210    -1.8160     1.5000 c5         1 FR1       0.028700
     21 C21          3.9450    -2.9260     2.0160 c5         1 FR1      -0.085400
     22 C22          2.9980    -4.1030     2.2120 c5         1 FR1      -0.096400
     23 C23          2.0620    -3.9880     1.0180 c5         1 FR1       0.110000
     24 C24          3.7350    -0.9000     0.5150 c          1 FR1       0.674100
     25 O25          4.0280    -1.2720    -0.6080 o          1 FR1      -0.594100
     26 N26          4.0670     0.3040     1.0110 ns         1 FR1      -0.560900
     27 C27          4.7090     1.3100     0.2030 c3         1 FR1       0.031700
     28 C28          3.6770     2.1260    -0.6260 c3         1 FR1      -0.073700
     29 C29          2.6310     2.8110     0.2430 c3         1 FR1      -0.097100
     30 C30          4.3260     3.1150    -1.5880 c3         1 FR1      -0.097100
     31 C31          5.5280     2.1890     1.1220 c          1 FR1       0.514100
     32 O32          5.2020     2.4540     2.2460 o          1 FR1      -0.452100
     33 C33          6.8710     2.7860     0.6430 c3         1 FR1       0.567900
     34 F34          7.8300     2.4340     1.4950 f          1 FR1      -0.224633
     35 F35          7.2290     2.3770    -0.5710 f          1 FR1      -0.224633
     36 F36          6.7990     4.1170     0.6290 f          1 FR1      -0.224633
     37 C37         -8.2780     2.9010     0.6470 c3         1 FR1      -0.062000
     38 C38         -7.7700     4.3300     0.9320 c          1 FR1       0.923600
     39 O39         -6.5380     4.4790     1.0480 o          1 FR1      -0.832300
     40 O40         -8.6530     5.1990     1.0210 o          1 FR1      -0.832300
     41 HC1         -2.8090     0.2330    -0.9160 ha         1 FR1       0.135000
     42 HC2         -4.8000     1.5620    -0.6240 ha         1 FR1       0.154000
     43 HN5         -6.2670     2.4170     0.6580 hn         1 FR1       0.344500
     44 HC7         -6.9740    -1.9240     0.6100 ha         1 FR1       0.154000
     45 HC8         -4.9500    -3.2760     0.3250 ha         1 FR1       0.135000
     46 H12         -1.2710    -0.9130    -0.1490 hn         1 FR1       0.343500
     47 H13         -0.2000    -3.6110    -0.2150 h1         1 FR1       0.078700
     48 H14         -0.5610    -3.1220    -2.5520 hc         1 FR1       0.066700
     49 H151         0.6140    -1.3910    -3.7840 hc         1 FR1       0.038700
     50 H152        -0.3360    -0.6110    -2.5300 hc         1 FR1       0.038700
     51 H153         1.4100    -0.7940    -2.3330 hc         1 FR1       0.038700
     52 H161         2.4200    -3.1300    -1.8920 hc         1 FR1       0.038700
     53 H162         1.3640    -4.5500    -1.9220 hc         1 FR1       0.038700
     54 H163         1.6760    -3.6470    -3.3980 hc         1 FR1       0.038700
     55 H20          2.6190    -1.2380     2.3380 h1         1 FR1       0.070700
     56 H211         4.4620    -2.6270     2.9260 hc         1 FR1       0.063200
     57 H212         4.6970    -3.1720     1.2630 hc         1 FR1       0.063200
     58 H221         2.4380    -3.9950     3.1430 hc         1 FR1       0.057700
     59 H222         3.5130    -5.0620     2.2380 hc         1 FR1       0.057700
     60 H231         1.0900    -4.4410     1.2060 h1         1 FR1       0.058700
     61 H232         2.5000    -4.4620     0.1370 h1         1 FR1       0.058700
     62 H26          3.6930     0.5720     1.9080 hn         1 FR1       0.334500
     63 H27          5.3720     0.8010    -0.4980 h1         1 FR1       0.102700
     64 H28          3.1700     1.3670    -1.2280 hc         1 FR1       0.080700
     65 H291         3.0600     3.5870     0.8800 hc         1 FR1       0.043533
     66 H292         1.8920     3.2960    -0.3960 hc         1 FR1       0.043533
     67 H293         2.0920     2.1030     0.8720 hc         1 FR1       0.043533
     68 H301         5.0860     2.6460    -2.2130 hc         1 FR1       0.043533
     69 H302         3.5650     3.5230    -2.2540 hc         1 FR1       0.043533
     70 H303         4.7760     3.9660    -1.0730 hc         1 FR1       0.043533
     71 H371        -8.9020     2.9110    -0.2500 h1         1 FR1       0.038700
     72 H372        -8.9260     2.5860     1.4720 h1         1 FR1       0.038700
@<TRIPOS>BOND
     1     1     2 ar  
     2     1     9 ar  
     3     1    41 1   
     4     2     3 ar  
     5     2    42 1   
     6     3     4 1   
     7     3     7 ar  
     8     4     5 1   
     9     4     6 2   
    10     5    37 1   
    11     5    43 1   
    12     7     8 ar  
    13     7    44 1   
    14     8     9 ar  
    15     8    45 1   
    16     9    10 1   
    17    10    11 2   
    18    10    12 1   
    19    12    13 1   
    20    12    46 1   
    21    13    14 1   
    22    13    17 1   
    23    13    47 1   
    24    14    15 1   
    25    14    16 1   
    26    14    48 1   
    27    15    49 1   
    28    15    50 1   
    29    15    51 1   
    30    16    52 1   
    31    16    53 1   
    32    16    54 1   
    33    17    18 2   
    34    17    19 1   
    35    19    20 1   
    36    19    23 1   
    37    20    21 1   
    38    20    24 1   
    39    20    55 1   
    40    21    22 1   
    41    21    56 1   
    42    21    57 1   
    43    22    23 1   
    44    22    58 1   
    45    22    59 1   
    46    23    60 1   
    47    23    61 1   
    48    24    25 2   
    49    24    26 1   
    50    26    27 1   
    51    26    62 1   
    52    27    28 1   
    53    27    31 1   
    54    27    63 1   
    55    28    29 1   
    56    28    30 1   
    57    28    64 1   
    58    29    65 1   
    59    29    66 1   
    60    29    67 1   
    61    30    68 1   
    62    30    69 1   
    63    30    70 1   
    64    31    32 2   
    65    31    33 1   
    66    33    34 1   
    67    33    35 1   
    68    33    36 1   
    69    37    38 1   
    70    37    71 1   
    71    37    72 1   
    72    38    39 1   
    73    38    40 1   
@<TRIPOS>SUBSTRUCTURE
     1 FR1         1 TEMP              0 ****  ****    0 ROOT
