@<TRIPOS>MOLECULE
FR1
   72    73     1     0     0
SMALL
No Charge or Current Charge


@<TRIPOS>ATOM
      1 C1          -4.0100    -0.4260    -0.1010 ca         1 FR1      -0.088500
      2 C2          -5.1820     0.3430     0.0100 ca         1 FR1      -0.087500
      3 C3          -6.4590    -0.2630    -0.0640 ca         1 FR1      -0.101600
      4 C4          -7.7470     0.5330     0.0510 c          1 FR1       0.586700
      5 N5          -7.6250     1.8950     0.2330 ns         1 FR1      -0.453900
      6 O6          -8.8510     0.0040    -0.0120 o          1 FR1      -0.649100
      7 C7          -6.5210    -1.6610    -0.2520 ca         1 FR1      -0.087500
      8 C8          -5.3510    -2.4300    -0.3630 ca         1 FR1      -0.088500
      9 C9          -4.0760    -1.8280    -0.2890 ca         1 FR1      -0.155600
     10 C10         -2.8340    -2.6900    -0.4140 c          1 FR1       0.620700
     11 O11         -2.8940    -3.9000    -0.5870 o          1 FR1      -0.623100
     12 N12         -1.6230    -2.0430    -0.3180 ns         1 FR1      -0.503900
     13 C13         -0.2930    -2.6840    -0.4460 c3         1 FR1       0.051700
     14 C14          0.0420    -2.9520    -1.9510 c3         1 FR1      -0.069700
     15 C15          0.1830    -1.6520    -2.7820 c3         1 FR1      -0.091600
     16 C16          1.2670    -3.8720    -2.1590 c3         1 FR1      -0.091600
     17 C17          0.7750    -1.8020     0.2870 c          1 FR1       0.604100
     18 O18          0.6070    -0.5930     0.4230 o          1 FR1      -0.623100
     19 N19          1.9630    -2.4020     0.7600 n          1 FR1      -0.396800
     20 C20          3.1110    -1.5870     1.2490 c5         1 FR1       0.028700
     21 C21          4.1380    -2.7050     1.5840 c5         1 FR1      -0.085400
     22 C22          3.2190    -3.7810     2.2080 c5         1 FR1      -0.096400
     23 C23          2.0350    -3.8130     1.2070 c5         1 FR1       0.110000
     24 C24          3.7380    -0.6260     0.1900 c          1 FR1       0.607100
     25 O25          3.6300    -0.6840    -1.0290 o          1 FR1      -0.594100
     26 N26          4.4670     0.3520     0.8350 ns         1 FR1      -0.493900
     27 C27          5.1560     1.4780     0.1600 c3         1 FR1       0.031700
     28 C28          4.1350     2.5780    -0.2790 c3         1 FR1      -0.073700
     29 C29          3.3940     3.2330     0.9130 c3         1 FR1      -0.097100
     30 C30          4.7550     3.6530    -1.2020 c3         1 FR1      -0.097100
     31 C31          6.3090     2.0050     1.0750 c          1 FR1       0.514100
     32 O32          6.1960     1.9770     2.2990 o          1 FR1      -0.452100
     33 C33          7.6180     2.5140     0.4050 c3         1 FR1       0.204000
     34 F34          8.6990     1.8750     0.9100 f          1 FR1      -0.103333
     35 F35          7.6430     2.3280    -0.9360 f          1 FR1      -0.103333
     36 F36          7.7970     3.8370     0.6290 f          1 FR1      -0.103333
     37 C37         -8.7560     2.8440     0.3590 c3         1 FR1      -0.062000
     38 C38         -8.2840     4.2890     0.6870 c          1 FR1       0.713000
     39 O39         -7.1160     4.5890     0.4710 o          1 FR1      -0.727000
     40 O40         -9.0950     5.0570     1.1820 o          1 FR1      -0.727000
     41 HC1         -3.0560     0.0900    -0.0390 ha         1 FR1       0.117000
     42 HC2         -5.0740     1.4150     0.1530 ha         1 FR1       0.136000
     43 HN5         -6.6870     2.2760     0.2690 hn         1 FR1       0.344500
     44 HC7         -7.4860    -2.1610    -0.3140 ha         1 FR1       0.136000
     45 HC8         -5.4410    -3.5040    -0.5080 ha         1 FR1       0.117000
     46 H12         -1.6480    -1.0450    -0.1510 hn         1 FR1       0.343500
     47 H13         -0.3430    -3.6470     0.0750 h1         1 FR1       0.078700
     48 H14         -0.8110    -3.4990    -2.3720 hc         1 FR1       0.066700
     49 H151         0.3270    -1.8870    -3.8440 hc         1 FR1       0.038700
     50 H152        -0.7160    -1.0300    -2.6990 hc         1 FR1       0.038700
     51 H153         1.0440    -1.0600    -2.4480 hc         1 FR1       0.038700
     52 H161         2.1910    -3.3890    -1.8190 hc         1 FR1       0.038700
     53 H162         1.1390    -4.8160    -1.6170 hc         1 FR1       0.038700
     54 H163         1.3880    -4.1140    -3.2220 hc         1 FR1       0.038700
     55 H20          2.8230    -1.0140     2.1410 h1         1 FR1       0.070700
     56 H211         4.9230    -2.3670     2.2710 hc         1 FR1       0.063200
     57 H212         4.6330    -3.0860     0.6820 hc         1 FR1       0.063200
     58 H221         2.8810    -3.4790     3.2070 hc         1 FR1       0.057700
     59 H222         3.7090    -4.7560     2.3090 hc         1 FR1       0.057700
     60 H231         1.1100    -4.1540     1.6900 h1         1 FR1       0.058700
     61 H232         2.2580    -4.4810     0.3660 h1         1 FR1       0.058700
     62 H26          4.4980     0.3090     1.8490 hn         1 FR1       0.334500
     63 H27          5.6220     1.0660    -0.7450 h1         1 FR1       0.102700
     64 H28          3.3690     2.0730    -0.8820 hc         1 FR1       0.080700
     65 H291         4.0870     3.7890     1.5550 hc         1 FR1       0.043533
     66 H292         2.6310     3.9340     0.5530 hc         1 FR1       0.043533
     67 H293         2.8860     2.4780     1.5260 hc         1 FR1       0.043533
     68 H301         5.2640     3.1900    -2.0560 hc         1 FR1       0.043533
     69 H302         3.9730     4.3130    -1.5990 hc         1 FR1       0.043533
     70 H303         5.4750     4.2780    -0.6620 hc         1 FR1       0.043533
     71 H371        -9.3130     2.8680    -0.5860 h1         1 FR1       0.038700
     72 H372        -9.4250     2.5030     1.1590 h1         1 FR1       0.038700
@<TRIPOS>BOND
     1     1     2 ar  
     2     1     9 ar  
     3     1    41 1   
     4     2     3 ar  
     5     2    42 1   
     6     3     4 1   
     7     3     7 ar  
     8     4     5 1   
     9     4     6 2   
    10     5    37 1   
    11     5    43 1   
    12     7     8 ar  
    13     7    44 1   
    14     8     9 ar  
    15     8    45 1   
    16     9    10 1   
    17    10    11 2   
    18    10    12 1   
    19    12    13 1   
    20    12    46 1   
    21    13    14 1   
    22    13    17 1   
    23    13    47 1   
    24    14    15 1   
    25    14    16 1   
    26    14    48 1   
    27    15    49 1   
    28    15    50 1   
    29    15    51 1   
    30    16    52 1   
    31    16    53 1   
    32    16    54 1   
    33    17    18 2   
    34    17    19 1   
    35    19    20 1   
    36    19    23 1   
    37    20    21 1   
    38    20    24 1   
    39    20    55 1   
    40    21    22 1   
    41    21    56 1   
    42    21    57 1   
    43    22    23 1   
    44    22    58 1   
    45    22    59 1   
    46    23    60 1   
    47    23    61 1   
    48    24    25 2   
    49    24    26 1   
    50    26    27 1   
    51    26    62 1   
    52    27    28 1   
    53    27    31 1   
    54    27    63 1   
    55    28    29 1   
    56    28    30 1   
    57    28    64 1   
    58    29    65 1   
    59    29    66 1   
    60    29    67 1   
    61    30    68 1   
    62    30    69 1   
    63    30    70 1   
    64    31    32 2   
    65    31    33 1   
    66    33    34 1   
    67    33    35 1   
    68    33    36 1   
    69    37    38 1   
    70    37    71 1   
    71    37    72 1   
    72    38    39 1   
    73    38    40 1   
@<TRIPOS>SUBSTRUCTURE
     1 FR1         1 TEMP              0 ****  ****    0 ROOT
