@<TRIPOS>MOLECULE
FR2
   36    37     1     0     0
SMALL
No Charge or Current Charge


@<TRIPOS>ATOM
      1 C1          -0.2100     0.7690     2.5450 cc         1 FR2      -0.158000
      2 N2           0.5080     0.1920     1.5180 na         1 FR2      -0.169500
      3 C3           0.7210    -1.1300     1.8550 cc         1 FR2       0.413400
      4 N4           0.1740    -1.4110     3.0310 nd         1 FR2      -0.680000
      5 C5          -0.4110    -0.2260     3.4730 cd         1 FR2       0.165500
      6 C8          -1.1700     0.0260     4.7530 c          1 FR2       0.545600
      7 O9          -1.6620     1.0960     5.0830 o          1 FR2      -0.629100
      8 N10         -1.2880    -1.0490     5.5680 nt         1 FR2      -0.594000
      9 C13          0.9600     0.8680     0.2840 c3         1 FR2       0.088300
     10 C14          2.5100     1.0070     0.2290 c3         1 FR2       0.148600
     11 O15          3.1560    -0.2700     0.0780 oh         1 FR2      -0.659000
     12 C18          0.3330     0.2180    -0.9800 c3         1 FR2      -0.084400
     13 C19          0.5610     1.0070    -2.2890 c3         1 FR2      -0.027100
     14 C22         -0.1770     0.3810    -3.4650 ca         1 FR2      -0.085300
     15 C25         -1.4550     0.8450    -3.8330 ca         1 FR2      -0.105000
     16 C26         -2.1370     0.2610    -4.9150 ca         1 FR2      -0.108000
     17 C27         -1.5450    -0.7910    -5.6350 ca         1 FR2      -0.107000
     18 C28         -0.2710    -1.2590    -5.2710 ca         1 FR2      -0.108000
     19 C29          0.4100    -0.6750    -4.1890 ca         1 FR2      -0.105000
     20 H1          -0.5200     1.8070     2.5490 h4         1 FR2       0.170000
     21 H3           1.2600    -1.8180     1.2140 h5         1 FR2       0.068100
     22 H101        -1.7820    -0.9630     6.4440 hn         1 FR2       0.322000
     23 H102        -0.8780    -1.9280     5.2850 hn         1 FR2       0.322000
     24 H13          0.5670     1.8910     0.3350 h1         1 FR2       0.067700
     25 H141         2.7830     1.6690    -0.6020 h1         1 FR2       0.034200
     26 H142         2.8510     1.4940     1.1530 h1         1 FR2       0.034200
     27 HO           4.1240    -0.1010     0.0410 ho         1 FR2       0.453000
     28 H181         0.7170    -0.8020    -1.1040 hc         1 FR2       0.064700
     29 H182        -0.7490     0.1250    -0.8210 hc         1 FR2       0.064700
     30 H191         0.2330     2.0450    -2.1480 hc         1 FR2       0.047200
     31 H192         1.6340     1.0510    -2.5110 hc         1 FR2       0.047200
     32 H25         -1.9220     1.6560    -3.2790 ha         1 FR2       0.111000
     33 H26         -3.1240     0.6230    -5.1940 ha         1 FR2       0.113500
     34 H27         -2.0730    -1.2420    -6.4720 ha         1 FR2       0.114000
     35 H28          0.1880    -2.0740    -5.8270 ha         1 FR2       0.113500
     36 H29          1.3950    -1.0450    -3.9120 ha         1 FR2       0.111000
@<TRIPOS>BOND
     1     1     2 1   
     2     1     5 2   
     3     1    20 1   
     4     2     3 1   
     5     2     9 1   
     6     3     4 2   
     7     3    21 1   
     8     4     5 1   
     9     5     6 1   
    10     6     7 2   
    11     6     8 1   
    12     8    22 1   
    13     8    23 1   
    14     9    10 1   
    15     9    12 1   
    16     9    24 1   
    17    10    11 1   
    18    10    25 1   
    19    10    26 1   
    20    11    27 1   
    21    12    13 1   
    22    12    28 1   
    23    12    29 1   
    24    13    14 1   
    25    13    30 1   
    26    13    31 1   
    27    14    15 ar  
    28    14    19 ar  
    29    15    16 ar  
    30    15    32 1   
    31    16    17 ar  
    32    16    33 1   
    33    17    18 ar  
    34    17    34 1   
    35    18    19 ar  
    36    18    35 1   
    37    19    36 1   
@<TRIPOS>SUBSTRUCTURE
     1 FR2         1 TEMP              0 ****  ****    0 ROOT
