@<TRIPOS>MOLECULE
FR2
   36    37     1     0     0
SMALL
bcc


@<TRIPOS>ATOM
      1 C1          -0.1480     0.8620     2.5420 cc         1 FR2      -0.190600
      2 N2           0.4110     0.2470     1.4680 na         1 FR2      -0.190900
      3 C3           0.4910    -1.0750     1.7640 cc         1 FR2       0.413400
      4 N4           0.0130    -1.3360     2.9490 nd         1 FR2      -0.680000
      5 C5          -0.3910    -0.1310     3.4520 cd         1 FR2       0.230800
      6 C8          -1.0020     0.0330     4.7810 c          1 FR2       0.612600
      7 O9          -1.3490     1.1360     5.1920 o          1 FR2      -0.629100
      8 N10         -1.1400    -1.1010     5.4810 nt         1 FR2      -0.661000
      9 C13          0.8770     0.9100     0.2530 c3         1 FR2       0.059000
     10 C14          2.3950     0.9910     0.2380 c3         1 FR2       0.125400
     11 O15          2.9280    -0.2980     0.0700 oh         1 FR2      -0.596800
     12 C18          0.2570     0.2580    -0.9820 c3         1 FR2      -0.084400
     13 C19          0.5940     0.9980    -2.2770 c3         1 FR2      -0.027100
     14 C22         -0.1150     0.3820    -3.4520 ca         1 FR2      -0.085300
     15 C25         -1.4140     0.7610    -3.7820 ca         1 FR2      -0.123000
     16 C26         -2.0850     0.1600    -4.8380 ca         1 FR2      -0.126000
     17 C27         -1.4650    -0.8360    -5.5820 ca         1 FR2      -0.125000
     18 C28         -0.1700    -1.2220    -5.2630 ca         1 FR2      -0.126000
     19 C29          0.4970    -0.6170    -4.2050 ca         1 FR2      -0.123000
     20 H1          -0.3290     1.9230     2.5680 h4         1 FR2       0.188000
     21 H3           0.9000    -1.8010     1.0800 h5         1 FR2       0.068100
     22 H101        -1.5700    -1.0930     6.3910 hn         1 FR2       0.322000
     23 H102        -0.8610    -1.9860     5.0920 hn         1 FR2       0.322000
     24 H13          0.5120     1.9380     0.3190 h1         1 FR2       0.067700
     25 H141         2.6940     1.6700    -0.5700 h1         1 FR2       0.034200
     26 H142         2.7250     1.4530     1.1760 h1         1 FR2       0.034200
     27 HO           3.8820    -0.2490     0.1780 ho         1 FR2       0.414000
     28 H181         0.5700    -0.7840    -1.0730 hc         1 FR2       0.064700
     29 H182        -0.8280     0.2470    -0.8490 hc         1 FR2       0.064700
     30 H191         0.3120     2.0500    -2.1780 hc         1 FR2       0.047200
     31 H192         1.6710     0.9750    -2.4530 hc         1 FR2       0.047200
     32 H25         -1.9070     1.5370    -3.2060 ha         1 FR2       0.129000
     33 H26         -3.0940     0.4700    -5.0810 ha         1 FR2       0.131500
     34 H27         -1.9870    -1.3050    -6.4060 ha         1 FR2       0.132000
     35 H28          0.3250    -1.9940    -5.8380 ha         1 FR2       0.131500
     36 H29          1.5090    -0.9230    -3.9640 ha         1 FR2       0.129000
@<TRIPOS>BOND
     1     1     2 1   
     2     1     5 2   
     3     1    20 1   
     4     2     3 1   
     5     2     9 1   
     6     3     4 2   
     7     3    21 1   
     8     4     5 1   
     9     5     6 1   
    10     6     7 2   
    11     6     8 1   
    12     8    22 1   
    13     8    23 1   
    14     9    10 1   
    15     9    12 1   
    16     9    24 1   
    17    10    11 1   
    18    10    25 1   
    19    10    26 1   
    20    11    27 1   
    21    12    13 1   
    22    12    28 1   
    23    12    29 1   
    24    13    14 1   
    25    13    30 1   
    26    13    31 1   
    27    14    15 ar  
    28    14    19 ar  
    29    15    16 ar  
    30    15    32 1   
    31    16    17 ar  
    32    16    33 1   
    33    17    18 ar  
    34    17    34 1   
    35    18    19 ar  
    36    18    35 1   
    37    19    36 1   
@<TRIPOS>SUBSTRUCTURE
     1 FR2         1 TEMP              0 ****  ****    0 ROOT
