@<TRIPOS>MOLECULE
FR3
   42    44     1     0     0
SMALL
No Charge or Current Charge


@<TRIPOS>ATOM
      1 C1          -0.4740     0.5620     3.5040 cc         1 FR3      -0.158000
      2 N2           0.2950     0.4490     2.3640 na         1 FR3      -0.169500
      3 C3           1.1030    -0.6600     2.5190 cc         1 FR3       0.413400
      4 N4           0.8810    -1.2460     3.6880 nd         1 FR3      -0.680000
      5 C5          -0.1060    -0.4870     4.3150 cd         1 FR3       0.165500
      6 C8          -0.7370    -0.7010     5.6690 c          1 FR3       0.546600
      7 O9          -1.6040     0.0080     6.1620 o          1 FR3      -0.628100
      8 N10         -0.2740    -1.7740     6.3520 nt         1 FR3      -0.594000
      9 C13          0.2530     1.3480     1.1920 c3         1 FR3       0.088300
     10 C14          1.5730     2.1590     1.0340 c3         1 FR3       0.146600
     11 O15          2.6760     1.3170     0.6570 oh         1 FR3      -0.661000
     12 C18         -0.1850     0.5860    -0.0900 c3         1 FR3      -0.084400
     13 C19         -0.4840     1.4930    -1.3080 c3         1 FR3      -0.027100
     14 C22         -0.9770     0.6930    -2.5150 ca         1 FR3      -0.072300
     15 C25         -2.3650     0.6550    -2.7610 ca         1 FR3      -0.103000
     16 C26         -2.8840    -0.0610    -3.8490 ca         1 FR3      -0.107000
     17 C27         -2.0200    -0.7540    -4.7090 ca         1 FR3      -0.095000
     18 C28         -0.6330    -0.7330    -4.4810 ca         1 FR3      -0.037000
     19 C29         -0.0980    -0.0120    -3.3840 ca         1 FR3      -0.026000
     20 C2           0.2180    -1.4380    -5.3540 ca         1 FR3      -0.098000
     21 C4           1.3050    -0.0200    -3.1880 ca         1 FR3      -0.105000
     22 C6           1.6060    -1.4340    -5.1460 ca         1 FR3      -0.107000
     23 C7           2.1470    -0.7260    -4.0630 ca         1 FR3      -0.107000
     24 H1          -1.2040     1.3470     3.6580 h4         1 FR3       0.170000
     25 H3           1.8070    -0.9830     1.7600 h5         1 FR3       0.068100
     26 H101        -0.6450    -1.9860     7.2660 hn         1 FR3       0.322000
     27 H102         0.4420    -2.3510     5.9340 hn         1 FR3       0.322000
     28 H13         -0.5330     2.0850     1.4000 h1         1 FR3       0.068700
     29 H141         1.4240     2.9460     0.2830 h1         1 FR3       0.035200
     30 H142         1.7900     2.6630     1.9850 h1         1 FR3       0.035200
     31 H15          3.4700     1.8930     0.5880 ho         1 FR3       0.453000
     32 H181         0.5800    -0.1520    -0.3600 hc         1 FR3       0.065200
     33 H182        -1.0940     0.0150     0.1400 hc         1 FR3       0.065200
     34 H191        -1.2400     2.2320    -1.0140 hc         1 FR3       0.047700
     35 H192         0.4010     2.0800    -1.5760 hc         1 FR3       0.047700
     36 H25         -3.0500     1.1840    -2.1030 ha         1 FR3       0.110000
     37 H26         -3.9570    -0.0810    -4.0260 ha         1 FR3       0.115000
     38 H27         -2.4310    -1.3070    -5.5500 ha         1 FR3       0.115000
     39 H2          -0.1950    -1.9900    -6.1960 ha         1 FR3       0.113000
     40 H4           1.7640     0.5130    -2.3600 ha         1 FR3       0.121000
     41 H6           2.2600    -1.9800    -5.8220 ha         1 FR3       0.114000
     42 H7           3.2230    -0.7240    -3.9000 ha         1 FR3       0.113000
@<TRIPOS>BOND
     1     1     2 1   
     2     1     5 2   
     3     1    24 1   
     4     2     3 1   
     5     2     9 1   
     6     3     4 2   
     7     3    25 1   
     8     4     5 1   
     9     5     6 1   
    10     6     7 2   
    11     6     8 1   
    12     8    26 1   
    13     8    27 1   
    14     9    10 1   
    15     9    12 1   
    16     9    28 1   
    17    10    11 1   
    18    10    29 1   
    19    10    30 1   
    20    11    31 1   
    21    12    13 1   
    22    12    32 1   
    23    12    33 1   
    24    13    14 1   
    25    13    34 1   
    26    13    35 1   
    27    14    15 ar  
    28    14    19 ar  
    29    15    16 ar  
    30    15    36 1   
    31    16    17 ar  
    32    16    37 1   
    33    17    18 ar  
    34    17    38 1   
    35    18    19 ar  
    36    18    20 ar  
    37    19    21 ar  
    38    20    22 ar  
    39    20    39 1   
    40    21    23 ar  
    41    21    40 1   
    42    22    23 ar  
    43    22    41 1   
    44    23    42 1   
@<TRIPOS>SUBSTRUCTURE
     1 FR3         1 TEMP              0 ****  ****    0 ROOT
