@<TRIPOS>MOLECULE
FR3
   42    44     1     0     0
SMALL
abcg2


@<TRIPOS>ATOM
      1 C1          -0.4100     0.6490     3.5190 cc         1 FR3      -0.158000
      2 N2           0.1430     0.4400     2.2960 na         1 FR3      -0.169500
      3 C3           0.8200    -0.7350     2.3620 cc         1 FR3       0.413400
      4 N4           0.7250    -1.2830     3.5420 nd         1 FR3      -0.680000
      5 C5          -0.0420    -0.4270     4.2810 cd         1 FR3       0.165500
      6 C8          -0.3940    -0.6640     5.6910 c          1 FR3       0.546600
      7 O9          -1.0870     0.1300     6.3180 o          1 FR3      -0.628100
      8 N10          0.1030    -1.7940     6.2110 nt         1 FR3      -0.594000
      9 C13          0.0680     1.3530     1.1590 c3         1 FR3       0.088300
     10 C14          1.3900     2.0800     0.9700 c3         1 FR3       0.146600
     11 O15          2.3520     1.1750     0.4900 oh         1 FR3      -0.661000
     12 C18         -0.4300     0.6100    -0.0810 c3         1 FR3      -0.084400
     13 C19         -0.5840     1.5180    -1.3030 c3         1 FR3      -0.027100
     14 C22         -1.0200     0.7530    -2.5220 ca         1 FR3      -0.072300
     15 C25         -2.3380     0.7640    -2.9050 ca         1 FR3      -0.103000
     16 C26         -2.7880     0.0500    -4.0340 ca         1 FR3      -0.107000
     17 C27         -1.9050    -0.6710    -4.7860 ca         1 FR3      -0.095000
     18 C28         -0.5360    -0.7120    -4.4350 ca         1 FR3      -0.037000
     19 C29         -0.0830    -0.0000    -3.2900 ca         1 FR3      -0.026000
     20 C2           0.3930    -1.4480    -5.2080 ca         1 FR3      -0.098000
     21 C4           1.2940    -0.0660    -2.9630 ca         1 FR3      -0.105000
     22 C6           1.7170    -1.4880    -4.8660 ca         1 FR3      -0.107000
     23 C7           2.1690    -0.7890    -3.7290 ca         1 FR3      -0.107000
     24 H1          -1.0040     1.5200     3.7420 h4         1 FR3       0.170000
     25 H3           1.3610    -1.1470     1.5260 h5         1 FR3       0.068100
     26 H101        -0.0740    -2.0390     7.1710 hn         1 FR3       0.322000
     27 H102         0.6700    -2.4130     5.6570 hn         1 FR3       0.322000
     28 H13         -0.6700     2.1100     1.4320 h1         1 FR3       0.068700
     29 H141         1.2280     2.9140     0.2780 h1         1 FR3       0.035200
     30 H142         1.6840     2.5200     1.9310 h1         1 FR3       0.035200
     31 H15          3.1920     1.6370     0.4120 ho         1 FR3       0.453000
     32 H181         0.2400    -0.2170    -0.3200 hc         1 FR3       0.065200
     33 H182        -1.3990     0.1640     0.1540 hc         1 FR3       0.065200
     34 H191        -1.3240     2.2920    -1.0850 hc         1 FR3       0.047700
     35 H192         0.3520     2.0390    -1.5130 hc         1 FR3       0.047700
     36 H25         -3.0520     1.3410    -2.3290 ha         1 FR3       0.110000
     37 H26         -3.8360     0.0850    -4.3030 ha         1 FR3       0.115000
     38 H27         -2.2410    -1.2140    -5.6620 ha         1 FR3       0.115000
     39 H2           0.0370    -1.9810    -6.0820 ha         1 FR3       0.113000
     40 H4           1.6700     0.4530    -2.0900 ha         1 FR3       0.121000
     41 H6           2.4180    -2.0550    -5.4630 ha         1 FR3       0.114000
     42 H7           3.2170    -0.8260    -3.4590 ha         1 FR3       0.113000
@<TRIPOS>BOND
     1     1     2 1   
     2     1     5 2   
     3     1    24 1   
     4     2     3 1   
     5     2     9 1   
     6     3     4 2   
     7     3    25 1   
     8     4     5 1   
     9     5     6 1   
    10     6     7 2   
    11     6     8 1   
    12     8    26 1   
    13     8    27 1   
    14     9    10 1   
    15     9    12 1   
    16     9    28 1   
    17    10    11 1   
    18    10    29 1   
    19    10    30 1   
    20    11    31 1   
    21    12    13 1   
    22    12    32 1   
    23    12    33 1   
    24    13    14 1   
    25    13    34 1   
    26    13    35 1   
    27    14    15 ar  
    28    14    19 ar  
    29    15    16 ar  
    30    15    36 1   
    31    16    17 ar  
    32    16    37 1   
    33    17    18 ar  
    34    17    38 1   
    35    18    19 ar  
    36    18    20 ar  
    37    19    21 ar  
    38    20    22 ar  
    39    20    39 1   
    40    21    23 ar  
    41    21    40 1   
    42    22    23 ar  
    43    22    41 1   
    44    23    42 1   
@<TRIPOS>SUBSTRUCTURE
     1 FR3         1 TEMP              0 ****  ****    0 ROOT
