@<TRIPOS>MOLECULE
FR4
   60    63     1     0     0
SMALL
abcg2


@<TRIPOS>ATOM
      1 C1           1.3930     0.4690     5.5850 cc         1 FR4      -0.158000
      2 N2           0.9780     0.4320     4.2920 na         1 FR4      -0.172500
      3 C3           1.6500    -0.5800     3.6870 cc         1 FR4       0.411400
      4 N4           2.4560    -1.1870     4.5130 nd         1 FR4      -0.676000
      5 C5           2.3080    -0.5410     5.7080 cd         1 FR4       0.168500
      6 C8           3.0470    -0.9060     6.9280 c          1 FR4       0.545600
      7 O9           2.8860    -0.2930     7.9780 o          1 FR4      -0.626100
      8 N10          3.8890    -1.9400     6.7870 nt         1 FR4      -0.593000
      9 C13          0.0270     1.3530     3.6780 c3         1 FR4       0.091300
     10 C14          0.7390     2.3200     2.7420 c3         1 FR4       0.145600
     11 O15          1.1130     1.6360     1.5730 oh         1 FR4      -0.664000
     12 C18         -1.1060     0.5680     3.0170 c3         1 FR4      -0.112400
     13 C19         -2.1550     1.4760     2.3840 c3         1 FR4       0.084600
     14 N22         -3.1820     0.7220     1.7070 na         1 FR4      -0.096700
     15 C27         -4.4090     0.3910     2.2210 cc         1 FR4      -0.166100
     16 C28         -5.1020    -0.3740     1.3310 cd         1 FR4      -0.225200
     17 C29         -4.2560    -0.5380     0.1910 ca         1 FR4      -0.111800
     18 C30         -3.0600     0.1570     0.4690 ca         1 FR4      -0.027200
     19 C31         -4.3710    -1.1990    -1.0350 ca         1 FR4      -0.043000
     20 C32         -3.3290    -1.1570    -1.9380 ca         1 FR4      -0.138000
     21 C33         -2.1480    -0.4460    -1.6450 ca         1 FR4      -0.008000
     22 C34         -2.0020     0.2140    -0.4350 ca         1 FR4      -0.182000
     23 N1          -1.0630    -0.4200    -2.5410 ns         1 FR4      -0.158000
     24 C2          -1.1220    -0.3250    -3.8940 c          1 FR4       0.603100
     25 O1          -2.1610    -0.3520    -4.5270 o          1 FR4      -0.577100
     26 C4           0.2350    -0.1660    -4.5500 c3         1 FR4      -0.160400
     27 C6           0.1990    -0.3720    -6.0610 c3         1 FR4      -0.019100
     28 C7           2.4210    -1.2350    -6.8820 ca         1 FR4      -0.107000
     29 C11          1.5570    -0.1630    -6.6720 ca         1 FR4      -0.085300
     30 C9           1.9960     1.1170    -7.0060 ca         1 FR4      -0.107000
     31 C12          3.2620     1.3210    -7.5360 ca         1 FR4      -0.109500
     32 C10          4.1140     0.2430    -7.7430 ca         1 FR4      -0.110000
     33 C15          3.6880    -1.0370    -7.4140 ca         1 FR4      -0.109500
     34 H1           1.0110     1.1860     6.2920 h4         1 FR4       0.171000
     35 H3           1.5140    -0.8300     2.6470 h5         1 FR4       0.068100
     36 H101         4.4520    -2.2510     7.5600 hn         1 FR4       0.322500
     37 H102         3.9900    -2.4080     5.9030 hn         1 FR4       0.322500
     38 H13         -0.3830     1.9480     4.4970 h1         1 FR4       0.070700
     39 H141         0.0620     3.1560     2.5310 h1         1 FR4       0.037200
     40 H142         1.6030     2.7410     3.2700 h1         1 FR4       0.037200
     41 H15          1.6510     2.2230     1.0340 ho         1 FR4       0.455000
     42 H181        -1.5870    -0.0580     3.7720 hc         1 FR4       0.073700
     43 H182        -0.7030    -0.1040     2.2570 hc         1 FR4       0.073700
     44 H191        -1.7020     2.1580     1.6630 h1         1 FR4       0.056700
     45 H192        -2.6340     2.0960     3.1420 h1         1 FR4       0.056700
     46 H27         -4.6970     0.7440     3.1990 h4         1 FR4       0.210000
     47 H28         -6.0970    -0.7670     1.4700 ha         1 FR4       0.208000
     48 H31         -5.2680    -1.7550    -1.2790 ha         1 FR4       0.119000
     49 H32         -3.4190    -1.6910    -2.8720 ha         1 FR4       0.136000
     50 H34         -1.0870     0.7490    -0.2030 ha         1 FR4       0.117000
     51 HN1         -0.1540    -0.2930    -2.1230 hn         1 FR4       0.147000
     52 H41          0.9480    -0.8570    -4.0900 hc         1 FR4       0.060200
     53 H42          0.6070     0.8390    -4.3200 hc         1 FR4       0.060200
     54 H61         -0.5190     0.3200    -6.5060 hc         1 FR4       0.064700
     55 H62         -0.1580    -1.3800    -6.2850 hc         1 FR4       0.064700
     56 H9           1.3370     1.9650    -6.8530 ha         1 FR4       0.111500
     57 H12          3.5840     2.3230    -7.7900 ha         1 FR4       0.112500
     58 H10          5.1000     0.4010    -8.1600 ha         1 FR4       0.113000
     59 H2           4.3430    -1.8840    -7.5740 ha         1 FR4       0.112500
     60 H7           2.0960    -2.2380    -6.6310 ha         1 FR4       0.111500
@<TRIPOS>BOND
     1     1     2 1   
     2     1     5 2   
     3     1    34 1   
     4     2     3 1   
     5     2     9 1   
     6     3     4 2   
     7     3    35 1   
     8     4     5 1   
     9     5     6 1   
    10     6     7 2   
    11     6     8 1   
    12     8    36 1   
    13     8    37 1   
    14     9    10 1   
    15     9    12 1   
    16     9    38 1   
    17    10    11 1   
    18    10    39 1   
    19    10    40 1   
    20    11    41 1   
    21    12    13 1   
    22    12    42 1   
    23    12    43 1   
    24    13    14 1   
    25    13    44 1   
    26    13    45 1   
    27    14    15 1   
    28    14    18 1   
    29    15    16 2   
    30    15    46 1   
    31    16    17 1   
    32    16    47 1   
    33    17    18 ar  
    34    17    19 ar  
    35    18    22 ar  
    36    19    20 ar  
    37    19    48 1   
    38    20    21 ar  
    39    20    49 1   
    40    21    22 ar  
    41    21    23 1   
    42    22    50 1   
    43    23    24 1   
    44    23    51 1   
    45    24    25 2   
    46    24    26 1   
    47    26    27 1   
    48    26    52 1   
    49    26    53 1   
    50    27    29 1   
    51    27    54 1   
    52    27    55 1   
    53    28    29 ar  
    54    28    33 ar  
    55    28    60 1   
    56    29    30 ar  
    57    30    31 ar  
    58    30    56 1   
    59    31    32 ar  
    60    31    57 1   
    61    32    33 ar  
    62    32    58 1   
    63    33    59 1   
@<TRIPOS>SUBSTRUCTURE
     1 FR4         1 TEMP              0 ****  ****    0 ROOT
