@<TRIPOS>MOLECULE
FR4
   60    63     1     0     0
SMALL
No Charge or Current Charge


@<TRIPOS>ATOM
      1 C1           1.5800    -0.0830     5.2660 cc         1 FR4      -0.158000
      2 N2           1.2240     0.1380     3.9520 na         1 FR4      -0.172500
      3 C3           1.9380    -0.7530     3.1750 cc         1 FR4       0.411400
      4 N4           2.7170    -1.5180     3.9290 nd         1 FR4      -0.676000
      5 C5           2.5010    -1.1050     5.2420 cd         1 FR4       0.168500
      6 C8           3.1300    -1.6340     6.5080 c          1 FR4       0.545600
      7 O9           2.8950    -1.2240     7.6370 o          1 FR4      -0.626100
      8 N10          4.0170    -2.6400     6.3280 nt         1 FR4      -0.593000
      9 C13          0.2530     1.1410     3.4690 c3         1 FR4       0.091300
     10 C14          0.9350     2.2530     2.6180 c3         1 FR4       0.145600
     11 O15          1.3980     1.7470     1.3540 oh         1 FR4      -0.664000
     12 C18         -0.9590     0.4640     2.7740 c3         1 FR4      -0.112400
     13 C19         -2.1100     1.4330     2.4220 c3         1 FR4       0.084600
     14 N22         -3.2630     0.7500     1.8110 na         1 FR4      -0.096700
     15 C27         -4.4510     0.3480     2.4550 cc         1 FR4      -0.166100
     16 C28         -5.1980    -0.2490     1.4490 cd         1 FR4      -0.225200
     17 C29         -4.4810    -0.2190     0.1990 ca         1 FR4      -0.111800
     18 C30         -3.2940     0.4030     0.4630 ca         1 FR4      -0.027200
     19 C31         -4.8120    -0.6920    -1.0740 ca         1 FR4      -0.043000
     20 C32         -3.8680    -0.5080    -2.1070 ca         1 FR4      -0.138000
     21 C33         -2.6270     0.1410    -1.8510 ca         1 FR4      -0.008000
     22 C34         -2.3380     0.5990    -0.5450 ca         1 FR4      -0.182000
     23 N1          -1.6330     0.3520    -2.8450 ns         1 FR4      -0.158000
     24 C2          -1.6050     0.1050    -4.2120 c          1 FR4       0.603100
     25 O1          -2.5430    -0.3550    -4.8530 o          1 FR4      -0.577100
     26 C4          -0.2890     0.4960    -4.8950 c3         1 FR4      -0.160400
     27 C6           0.5370    -0.7490    -5.2890 c3         1 FR4      -0.019100
     28 C7           3.0170    -0.1930    -5.1850 ca         1 FR4      -0.107000
     29 C11          1.8520    -0.3700    -5.9570 ca         1 FR4      -0.085300
     30 C9           1.9130    -0.1840    -7.3520 ca         1 FR4      -0.107000
     31 C12          3.1260     0.1710    -7.9690 ca         1 FR4      -0.109500
     32 C10          4.2850     0.3430    -7.1930 ca         1 FR4      -0.110000
     33 C15          4.2300     0.1620    -5.8010 ca         1 FR4      -0.109500
     34 H1           1.1720     0.4770     6.0990 h4         1 FR4       0.171000
     35 H3           1.8420    -0.7980     2.0960 h5         1 FR4       0.068100
     36 H101         4.4820    -3.0490     7.1250 hn         1 FR4       0.322500
     37 H102         4.2030    -2.9700     5.3910 hn         1 FR4       0.322500
     38 H13         -0.1400     1.6420     4.3630 h1         1 FR4       0.070700
     39 H141         0.2210     3.0720     2.4580 h1         1 FR4       0.037200
     40 H142         1.7750     2.6670     3.1910 h1         1 FR4       0.037200
     41 H15          1.8360     2.4940     0.8870 ho         1 FR4       0.455000
     42 H181        -1.3550    -0.3140     3.4380 hc         1 FR4       0.073700
     43 H182        -0.6250    -0.0460     1.8620 hc         1 FR4       0.073700
     44 H191        -1.7550     2.2050     1.7280 h1         1 FR4       0.056700
     45 H192        -2.4510     1.9380     3.3350 h1         1 FR4       0.056700
     46 H27         -4.6500     0.5110     3.5100 h4         1 FR4       0.210000
     47 H28         -6.1870    -0.6810     1.5910 ha         1 FR4       0.208000
     48 H31         -5.7620    -1.1880    -1.2600 ha         1 FR4       0.119000
     49 H32         -4.1180    -0.8790    -3.0950 ha         1 FR4       0.136000
     50 H34         -1.3940     1.0920    -0.3290 ha         1 FR4       0.117000
     51 HN1         -0.7780     0.7560    -2.4840 hn         1 FR4       0.147000
     52 H41          0.3170     1.1130    -4.2200 hc         1 FR4       0.060200
     53 H42         -0.5190     1.0610    -5.8060 hc         1 FR4       0.060200
     54 H61         -0.0570    -1.3820    -5.9620 hc         1 FR4       0.064700
     55 H62          0.7300    -1.3550    -4.3950 hc         1 FR4       0.064700
     56 H9           1.0200    -0.3130    -7.9600 ha         1 FR4       0.111500
     57 H12          3.1660     0.3130    -9.0470 ha         1 FR4       0.112500
     58 H10          5.2230     0.6190    -7.6700 ha         1 FR4       0.113000
     59 H2           5.1260     0.2960    -5.2000 ha         1 FR4       0.112500
     60 H7           2.9840    -0.3300    -4.1060 ha         1 FR4       0.111500
@<TRIPOS>BOND
     1     1     2 1   
     2     1     5 2   
     3     1    34 1   
     4     2     3 1   
     5     2     9 1   
     6     3     4 2   
     7     3    35 1   
     8     4     5 1   
     9     5     6 1   
    10     6     7 2   
    11     6     8 1   
    12     8    36 1   
    13     8    37 1   
    14     9    10 1   
    15     9    12 1   
    16     9    38 1   
    17    10    11 1   
    18    10    39 1   
    19    10    40 1   
    20    11    41 1   
    21    12    13 1   
    22    12    42 1   
    23    12    43 1   
    24    13    14 1   
    25    13    44 1   
    26    13    45 1   
    27    14    15 1   
    28    14    18 1   
    29    15    16 2   
    30    15    46 1   
    31    16    17 1   
    32    16    47 1   
    33    17    18 ar  
    34    17    19 ar  
    35    18    22 ar  
    36    19    20 ar  
    37    19    48 1   
    38    20    21 ar  
    39    20    49 1   
    40    21    22 ar  
    41    21    23 1   
    42    22    50 1   
    43    23    24 1   
    44    23    51 1   
    45    24    25 2   
    46    24    26 1   
    47    26    27 1   
    48    26    52 1   
    49    26    53 1   
    50    27    29 1   
    51    27    54 1   
    52    27    55 1   
    53    28    29 ar  
    54    28    33 ar  
    55    28    60 1   
    56    29    30 ar  
    57    30    31 ar  
    58    30    56 1   
    59    31    32 ar  
    60    31    57 1   
    61    32    33 ar  
    62    32    58 1   
    63    33    59 1   
@<TRIPOS>SUBSTRUCTURE
     1 FR4         1 TEMP              0 ****  ****    0 ROOT
