@<TRIPOS>MOLECULE
FR5
   66    70     1     0     0
SMALL
No Charge or Current Charge


@<TRIPOS>ATOM
      1 C1           3.2220    -3.5670    -0.2180 cc         1 FR5      -0.155000
      2 N2           3.1840    -2.4650    -1.0460 na         1 FR5      -0.183500
      3 C3           1.8560    -2.1210    -1.2150 cc         1 FR5       0.394400
      4 N4           1.0670    -2.9500    -0.5460 nd         1 FR5      -0.669000
      5 C5           1.9130    -3.8600     0.0840 cd         1 FR5       0.164500
      6 C8           1.5460    -5.0180     0.9780 c          1 FR5       0.545600
      7 O9           2.3420    -5.7840     1.5030 o          1 FR5      -0.627100
      8 N10          0.2180    -5.1810     1.1840 nt         1 FR5      -0.593000
      9 C13          4.3530    -1.7780    -1.6330 c3         1 FR5       0.086300
     10 C14          4.3320    -1.8670    -3.1840 c3         1 FR5       0.148600
     11 O15          5.5700    -1.4000    -3.7440 oh         1 FR5      -0.661000
     12 C18          4.4860    -0.3210    -1.1150 c3         1 FR5      -0.115400
     13 C19          4.5760    -0.2140     0.4260 c3         1 FR5       0.076600
     14 N22          4.6540     1.1780     0.9010 na         1 FR5      -0.090700
     15 C27          5.8010     1.8610     1.3520 cc         1 FR5      -0.158100
     16 C28          5.3350     3.1250     1.6870 cd         1 FR5      -0.233200
     17 C29          3.9180     3.2250     1.4440 ca         1 FR5      -0.109800
     18 C30          3.5360     2.0060     0.9600 ca         1 FR5      -0.034200
     19 C31          3.0140     4.2760     1.6250 ca         1 FR5      -0.040000
     20 C32          1.6660     4.0430     1.2770 ca         1 FR5      -0.173000
     21 C33          1.2530     2.7900     0.7580 ca         1 FR5      -0.026000
     22 C34          2.2020     1.7470     0.6090 ca         1 FR5      -0.130000
     23 N1          -0.1170     2.6270     0.4230 ns         1 FR5      -0.152000
     24 C2          -0.7690     1.6790    -0.3560 c          1 FR5       0.610100
     25 O1          -0.1980     0.8000    -0.9910 o          1 FR5      -0.600100
     26 C4          -2.2930     1.8390    -0.4120 c3         1 FR5      -0.162400
     27 C6          -3.0160     0.7180     0.3820 c3         1 FR5      -0.083700
     28 C9          -8.9300     1.5610     0.8710 ca         1 FR5      -0.135000
     29 C15         -7.6890     1.7520     1.5170 ca         1 FR5      -0.048000
     30 C10         -6.5210     1.3120     0.8740 ca         1 FR5       0.069400
     31 C16         -6.5890     0.7110    -0.3540 ca         1 FR5      -0.080200
     32 C11         -7.8030     0.5030    -1.0260 ca         1 FR5      -0.115000
     33 C17         -8.9870     0.9380    -0.3970 ca         1 FR5      -0.094000
     34 N11         -5.2170     1.4050     1.3340 nc         1 FR5      -0.573100
     35 C12         -4.5190     0.8340     0.3320 cd         1 FR5       0.413800
     36 N13         -5.3170     0.3890    -0.7380 na         1 FR5      -0.179600
     37 C7          -4.9490    -0.2590    -2.0080 c3         1 FR5       0.063900
     38 H1           4.1400    -4.0540     0.0890 h4         1 FR5       0.173000
     39 H3           1.5430    -1.2800    -1.8240 h5         1 FR5       0.079100
     40 H101        -0.4290    -4.5420     0.7440 hn         1 FR5       0.323500
     41 H102        -0.1110    -5.9340     1.7700 hn         1 FR5       0.323500
     42 H13          5.2440    -2.3260    -1.2990 h1         1 FR5       0.078700
     43 H141         4.1620    -2.9130    -3.4740 h1         1 FR5       0.037700
     44 H142         3.4900    -1.2760    -3.5690 h1         1 FR5       0.037700
     45 H15O         5.5000    -1.4940    -4.7210 ho         1 FR5       0.456000
     46 H181         3.6360     0.2700    -1.4750 hc         1 FR5       0.076200
     47 H182         5.3860     0.1370    -1.5440 hc         1 FR5       0.076200
     48 H191         5.4650    -0.7530     0.7750 h1         1 FR5       0.064700
     49 H192         3.7010    -0.6880     0.8900 h1         1 FR5       0.064700
     50 H27          6.7910     1.4150     1.3950 h4         1 FR5       0.212000
     51 H28          5.9590     3.9270     2.0780 ha         1 FR5       0.206000
     52 H31          3.3390     5.2370     2.0170 ha         1 FR5       0.117000
     53 H32          0.9410     4.8440     1.4030 ha         1 FR5       0.109000
     54 H34          1.9160     0.7660     0.2450 ha         1 FR5       0.137000
     55 HN1         -0.7280     3.3210     0.8350 hn         1 FR5       0.153000
     56 H41         -2.6100     1.7850    -1.4600 hc         1 FR5       0.066200
     57 H42         -2.5860     2.8080     0.0110 hc         1 FR5       0.066200
     58 H61         -2.6820     0.7460     1.4270 hc         1 FR5       0.081700
     59 H62         -2.7110    -0.2620    -0.0040 hc         1 FR5       0.081700
     60 H15         -7.6360     2.2310     2.4920 ha         1 FR5       0.128000
     61 H11         -7.8350     0.0220    -2.0010 ha         1 FR5       0.115000
     62 H17         -9.9470     0.7930    -0.8880 ha         1 FR5       0.112000
     63 H71         -5.3920    -1.2620    -2.0500 h1         1 FR5       0.051700
     64 H72         -5.3280     0.3390    -2.8470 h1         1 FR5       0.051700
     65 H73         -3.8590    -0.3430    -2.0930 h1         1 FR5       0.051700
     66 H9          -9.8460     1.8950     1.3530 ha         1 FR5       0.114000
@<TRIPOS>BOND
     1     1     2 1   
     2     1     5 2   
     3     1    38 1   
     4     2     3 1   
     5     2     9 1   
     6     3     4 2   
     7     3    39 1   
     8     4     5 1   
     9     5     6 1   
    10     6     7 2   
    11     6     8 1   
    12     8    40 1   
    13     8    41 1   
    14     9    10 1   
    15     9    12 1   
    16     9    42 1   
    17    10    11 1   
    18    10    43 1   
    19    10    44 1   
    20    11    45 1   
    21    12    13 1   
    22    12    46 1   
    23    12    47 1   
    24    13    14 1   
    25    13    48 1   
    26    13    49 1   
    27    14    15 1   
    28    14    18 1   
    29    15    16 2   
    30    15    50 1   
    31    16    17 1   
    32    16    51 1   
    33    17    18 ar  
    34    17    19 ar  
    35    18    22 ar  
    36    19    20 ar  
    37    19    52 1   
    38    20    21 ar  
    39    20    53 1   
    40    21    22 ar  
    41    21    23 1   
    42    22    54 1   
    43    23    24 1   
    44    23    55 1   
    45    24    25 2   
    46    24    26 1   
    47    26    27 1   
    48    26    56 1   
    49    26    57 1   
    50    27    35 1   
    51    27    58 1   
    52    27    59 1   
    53    28    29 ar  
    54    28    33 ar  
    55    28    66 1   
    56    29    30 ar  
    57    29    60 1   
    58    30    31 ar  
    59    30    34 1   
    60    31    32 ar  
    61    31    36 1   
    62    32    33 ar  
    63    32    61 1   
    64    33    62 1   
    65    34    35 2   
    66    35    36 1   
    67    36    37 1   
    68    37    63 1   
    69    37    64 1   
    70    37    65 1   
@<TRIPOS>SUBSTRUCTURE
     1 FR5         1 TEMP              0 ****  ****    0 ROOT
