@<TRIPOS>MOLECULE
FR5
   66    70     1     0     0
SMALL
bcc


@<TRIPOS>ATOM
      1 C1           3.1000    -3.5570     0.2370 cc         1 FR5      -0.187600
      2 N2           3.0470    -2.4770    -0.5860 na         1 FR5      -0.204900
      3 C3           1.7740    -2.0040    -0.5440 cc         1 FR5       0.394400
      4 N4           1.0240    -2.7110     0.2540 nd         1 FR5      -0.669000
      5 C5           1.8380    -3.6890     0.7520 cd         1 FR5       0.229800
      6 C8           1.3850    -4.7100     1.7110 c          1 FR5       0.612600
      7 O9           2.1500    -5.5710     2.1330 o          1 FR5      -0.627100
      8 N10          0.0970    -4.6110     2.0680 nt         1 FR5      -0.660000
      9 C13          4.1500    -1.9470    -1.3800 c3         1 FR5       0.057000
     10 C14          3.9070    -2.2850    -2.8490 c3         1 FR5       0.125400
     11 O15          5.0550    -1.9210    -3.5710 oh         1 FR5      -0.598800
     12 C18          4.3320    -0.4550    -1.1340 c3         1 FR5      -0.115400
     13 C19          4.6640    -0.1370     0.3220 c3         1 FR5       0.047300
     14 N22          4.6850     1.2840     0.5790 na         1 FR5      -0.061400
     15 C27          5.7960     2.0860     0.6250 cc         1 FR5      -0.108100
     16 C28          5.4310     3.3870     0.8050 cd         1 FR5      -0.183200
     17 C29          4.0030     3.4060     0.8660 ca         1 FR5      -0.109800
     18 C30          3.5750     2.0700     0.7150 ca         1 FR5      -0.034200
     19 C31          3.0340     4.4010     1.0340 ca         1 FR5      -0.058000
     20 C32          1.7000     4.0520     1.0190 ca         1 FR5      -0.191000
     21 C33          1.2970     2.7110     0.8600 ca         1 FR5       0.066600
     22 C34          2.2320     1.7010     0.7250 ca         1 FR5      -0.148000
     23 N1          -0.0820     2.4310     0.8620 ns         1 FR5      -0.478100
     24 C2          -0.7220     1.5810     0.0210 c          1 FR5       0.677100
     25 O1          -0.1510     0.8740    -0.7890 o          1 FR5      -0.600100
     26 C4          -2.2300     1.6010     0.1600 c3         1 FR5      -0.162400
     27 C6          -2.8730     0.3070    -0.3380 c3         1 FR5      -0.083700
     28 C9          -8.7180     0.2420     0.7130 ca         1 FR5      -0.153000
     29 C15         -7.5040    -0.1790     1.2280 ca         1 FR5      -0.066000
     30 C10         -6.3480     0.1290     0.5110 ca         1 FR5       0.069400
     31 C16         -6.4420     0.8460    -0.6920 ca         1 FR5      -0.080200
     32 C11         -7.6560     1.2690    -1.2190 ca         1 FR5      -0.133000
     33 C17         -8.7930     0.9540    -0.4930 ca         1 FR5      -0.112000
     34 N11         -5.0330    -0.1620     0.7780 nc         1 FR5      -0.573100
     35 C12         -4.3560     0.3520    -0.2150 cd         1 FR5       0.413800
     36 N13         -5.1490     0.9830    -1.1280 na         1 FR5      -0.150300
     37 C7          -4.7440     1.5890    -2.3750 c3         1 FR5       0.034600
     38 H1           4.0040    -4.1220     0.3870 h4         1 FR5       0.191000
     39 H3           1.4510    -1.1380    -1.1010 h5         1 FR5       0.079100
     40 H101        -0.4860    -3.8780     1.7000 hn         1 FR5       0.323500
     41 H102        -0.3030    -5.2530     2.7310 hn         1 FR5       0.323500
     42 H13          5.0440    -2.4810    -1.0460 h1         1 FR5       0.078700
     43 H141         3.6960    -3.3590    -2.9280 h1         1 FR5       0.037700
     44 H142         3.0150    -1.7500    -3.1980 h1         1 FR5       0.037700
     45 H15O         4.8800    -2.0610    -4.5060 ho         1 FR5       0.417000
     46 H181         3.4310     0.0820    -1.4450 hc         1 FR5       0.076200
     47 H182         5.1390    -0.0940    -1.7720 hc         1 FR5       0.076200
     48 H191         5.6410    -0.5450     0.5830 h1         1 FR5       0.064700
     49 H192         3.9420    -0.5960     1.0010 h1         1 FR5       0.064700
     50 H27          6.7790     1.6530     0.5270 h4         1 FR5       0.162000
     51 H28          6.1010     4.2280     0.8880 ha         1 FR5       0.156000
     52 H31          3.3210     5.4370     1.1610 ha         1 FR5       0.135000
     53 H32          0.9420     4.8190     1.1210 ha         1 FR5       0.127000
     54 H34          1.9280     0.6670     0.6450 ha         1 FR5       0.155000
     55 HN1         -0.6610     3.0360     1.4250 hn         1 FR5       0.319500
     56 H41         -2.6000     2.4620    -0.4080 hc         1 FR5       0.066200
     57 H42         -2.5130     1.7830     1.1990 hc         1 FR5       0.066200
     58 H61         -2.5150    -0.5340     0.2570 hc         1 FR5       0.081700
     59 H62         -2.5830     0.1100    -1.3710 hc         1 FR5       0.081700
     60 H15         -7.4500    -0.7310     2.1580 ha         1 FR5       0.146000
     61 H11         -7.7210     1.8180    -2.1500 ha         1 FR5       0.133000
     62 H17         -9.7610     1.2610    -0.8660 ha         1 FR5       0.130000
     63 H71         -4.7950     0.8750    -3.1970 h1         1 FR5       0.051700
     64 H72         -5.3950     2.4310    -2.5990 h1         1 FR5       0.051700
     65 H73         -3.7280     1.9670    -2.3000 h1         1 FR5       0.051700
     66 H9          -9.6310     0.0180     1.2480 ha         1 FR5       0.132000
@<TRIPOS>BOND
     1     1     2 1   
     2     1     5 2   
     3     1    38 1   
     4     2     3 1   
     5     2     9 1   
     6     3     4 2   
     7     3    39 1   
     8     4     5 1   
     9     5     6 1   
    10     6     7 2   
    11     6     8 1   
    12     8    40 1   
    13     8    41 1   
    14     9    10 1   
    15     9    12 1   
    16     9    42 1   
    17    10    11 1   
    18    10    43 1   
    19    10    44 1   
    20    11    45 1   
    21    12    13 1   
    22    12    46 1   
    23    12    47 1   
    24    13    14 1   
    25    13    48 1   
    26    13    49 1   
    27    14    15 1   
    28    14    18 1   
    29    15    16 2   
    30    15    50 1   
    31    16    17 1   
    32    16    51 1   
    33    17    18 ar  
    34    17    19 ar  
    35    18    22 ar  
    36    19    20 ar  
    37    19    52 1   
    38    20    21 ar  
    39    20    53 1   
    40    21    22 ar  
    41    21    23 1   
    42    22    54 1   
    43    23    24 1   
    44    23    55 1   
    45    24    25 2   
    46    24    26 1   
    47    26    27 1   
    48    26    56 1   
    49    26    57 1   
    50    27    35 1   
    51    27    58 1   
    52    27    59 1   
    53    28    29 ar  
    54    28    33 ar  
    55    28    66 1   
    56    29    30 ar  
    57    29    60 1   
    58    30    31 ar  
    59    30    34 1   
    60    31    32 ar  
    61    31    36 1   
    62    32    33 ar  
    63    32    61 1   
    64    33    62 1   
    65    34    35 2   
    66    35    36 1   
    67    36    37 1   
    68    37    63 1   
    69    37    64 1   
    70    37    65 1   
@<TRIPOS>SUBSTRUCTURE
     1 FR5         1 TEMP              0 ****  ****    0 ROOT
