@<TRIPOS>MOLECULE
FR6
   45    47     1     0     0
SMALL
abcg2


@<TRIPOS>ATOM
      1 C1           2.7550    -0.0420    -0.7250 cc         1 FR6      -0.149000
      2 N2           1.8860    -0.6350     0.1330 na         1 FR6      -0.165500
      3 C3           1.7920     0.1680     1.2240 cc         1 FR6       0.387400
      4 N4           2.5410     1.2300     1.1090 nd         1 FR6      -0.672000
      5 C5           3.1520     1.1150    -0.1070 cd         1 FR6       0.162500
      6 C8           4.0870     2.1190    -0.6410 c          1 FR6       0.545600
      7 O9           4.6170     1.9780    -1.7380 o          1 FR6      -0.624100
      8 N10          4.2960     3.1710     0.1620 nt         1 FR6      -0.594000
      9 C13          1.1920    -1.9030    -0.0600 c3         1 FR6       0.047300
     10 C14          1.7000    -2.9400     0.9620 c3         1 FR6       0.159300
     11 O15          1.0230    -4.1620     0.7870 oh         1 FR6      -0.646000
     12 C18         -0.3170    -1.6890    -0.0070 c3         1 FR6      -0.086400
     13 C19         -0.8220    -0.7830    -1.1330 c3         1 FR6      -0.034100
     14 C22         -2.2870    -0.4800    -0.9870 ca         1 FR6      -0.069300
     15 C25         -3.2110    -1.2690    -1.6240 ca         1 FR6      -0.105000
     16 C26         -4.5970    -1.0580    -1.4780 ca         1 FR6      -0.107000
     17 C27         -5.0560    -0.0430    -0.6870 ca         1 FR6      -0.095000
     18 C28         -4.1450     0.8010    -0.0110 ca         1 FR6      -0.037000
     19 C29         -2.7470     0.5860    -0.1570 ca         1 FR6      -0.026000
     20 C2          -4.6040     1.8610     0.8070 ca         1 FR6      -0.099000
     21 C4          -1.8640     1.4530     0.5340 ca         1 FR6      -0.105000
     22 C6          -3.7240     2.6780     1.4600 ca         1 FR6      -0.107000
     23 C7          -2.3370     2.4700     1.3190 ca         1 FR6      -0.105000
     24 C9           3.2100    -3.1170     0.8980 c3         1 FR6      -0.133100
     25 H1           3.0100    -0.4750    -1.6780 h4         1 FR6       0.173000
     26 H3           1.1650    -0.0710     2.0690 h5         1 FR6       0.060100
     27 H101         3.8320     3.2400     1.0520 hn         1 FR6       0.323000
     28 H102         4.9070     3.9190    -0.1190 hn         1 FR6       0.323000
     29 H13          1.4680    -2.2470    -1.0630 h1         1 FR6       0.065700
     30 H14          1.4250    -2.5940     1.9640 h1         1 FR6       0.080700
     31 HO           1.3290    -4.5690    -0.0310 ho         1 FR6       0.443000
     32 H181        -0.8100    -2.6580    -0.0860 hc         1 FR6       0.065700
     33 H182        -0.5990    -1.2830     0.9690 hc         1 FR6       0.065700
     34 H191        -0.2370     0.1390    -1.1720 hc         1 FR6       0.053200
     35 H192        -0.6540    -1.2850    -2.0890 hc         1 FR6       0.053200
     36 H25         -2.8680    -2.0810    -2.2560 ha         1 FR6       0.109000
     37 H26         -5.2910    -1.7040    -1.9990 ha         1 FR6       0.114000
     38 H27         -6.1200     0.1290    -0.5690 ha         1 FR6       0.114000
     39 H2          -5.6720     2.0160     0.9070 ha         1 FR6       0.113000
     40 H4          -0.7950     1.3210     0.4390 ha         1 FR6       0.117000
     41 H6          -4.0870     3.4870     2.0800 ha         1 FR6       0.114000
     42 H7          -1.6430     3.1210     1.8350 ha         1 FR6       0.116000
     43 H91          3.5320    -3.4070    -0.1050 hc         1 FR6       0.052033
     44 H92          3.7400    -2.2040     1.1660 hc         1 FR6       0.052033
     45 H93          3.5240    -3.8940     1.5950 hc         1 FR6       0.052033
@<TRIPOS>BOND
     1     1     2 1   
     2     1     5 2   
     3     1    25 1   
     4     2     3 1   
     5     2     9 1   
     6     3     4 2   
     7     3    26 1   
     8     4     5 1   
     9     5     6 1   
    10     6     7 2   
    11     6     8 1   
    12     8    27 1   
    13     8    28 1   
    14     9    10 1   
    15     9    12 1   
    16     9    29 1   
    17    10    11 1   
    18    10    24 1   
    19    10    30 1   
    20    11    31 1   
    21    12    13 1   
    22    12    32 1   
    23    12    33 1   
    24    13    14 1   
    25    13    34 1   
    26    13    35 1   
    27    14    15 ar  
    28    14    19 ar  
    29    15    16 ar  
    30    15    36 1   
    31    16    17 ar  
    32    16    37 1   
    33    17    18 ar  
    34    17    38 1   
    35    18    19 ar  
    36    18    20 ar  
    37    19    21 ar  
    38    20    22 ar  
    39    20    39 1   
    40    21    23 ar  
    41    21    40 1   
    42    22    23 ar  
    43    22    41 1   
    44    23    42 1   
    45    24    43 1   
    46    24    44 1   
    47    24    45 1   
@<TRIPOS>SUBSTRUCTURE
     1 FR6         1 TEMP              0 ****  ****    0 ROOT
