@<TRIPOS>MOLECULE
FR6
   45    47     1     0     0
SMALL
No Charge or Current Charge


@<TRIPOS>ATOM
      1 C1           2.8320    -0.0340    -0.7770 cc         1 FR6      -0.149000
      2 N2           1.9950    -0.5840     0.1710 na         1 FR6      -0.165500
      3 C3           2.0030     0.2590     1.2660 cc         1 FR6       0.387400
      4 N4           2.7950     1.2990     1.0560 nd         1 FR6      -0.672000
      5 C5           3.3210     1.1260    -0.2230 cd         1 FR6       0.162500
      6 C8           4.2820     2.0160    -0.9700 c          1 FR6       0.545600
      7 O9           4.7060     1.8050    -2.0980 o          1 FR6      -0.624100
      8 N10          4.6750     3.1230    -0.2980 nt         1 FR6      -0.594000
      9 C13          1.2260    -1.8400     0.0330 c3         1 FR6       0.047300
     10 C14          1.6700    -2.9120     1.0810 c3         1 FR6       0.159300
     11 O15          0.9820    -4.1500     0.8560 oh         1 FR6      -0.646000
     12 C18         -0.3050    -1.5640     0.0620 c3         1 FR6      -0.086400
     13 C19         -0.7980    -0.6030    -1.0490 c3         1 FR6      -0.034100
     14 C22         -2.3040    -0.3520    -0.9670 ca         1 FR6      -0.069300
     15 C25         -3.1460    -1.0880    -1.8250 ca         1 FR6      -0.105000
     16 C26         -4.5370    -0.9080    -1.7980 ca         1 FR6      -0.107000
     17 C27         -5.1070     0.0120    -0.9080 ca         1 FR6      -0.095000
     18 C28         -4.2880     0.7550    -0.0400 ca         1 FR6      -0.037000
     19 C29         -2.8800     0.5810    -0.0590 ca         1 FR6      -0.026000
     20 C2          -4.8800     1.6730     0.8490 ca         1 FR6      -0.099000
     21 C4          -2.0910     1.3470     0.8330 ca         1 FR6      -0.105000
     22 C6          -4.0830     2.4230     1.7260 ca         1 FR6      -0.107000
     23 C7          -2.6900     2.2590     1.7180 ca         1 FR6      -0.105000
     24 C9           3.1860    -3.2070     1.0560 c3         1 FR6      -0.133100
     25 H1           3.0170    -0.4850    -1.7440 h4         1 FR6       0.173000
     26 H3           1.4220     0.0600     2.1590 h5         1 FR6       0.060100
     27 H101         4.3170     3.2860     0.6330 hn         1 FR6       0.323000
     28 H102         5.3180     3.7710    -0.7280 hn         1 FR6       0.323000
     29 H13          1.4620    -2.2470    -0.9590 h1         1 FR6       0.065700
     30 H14          1.4190    -2.5310     2.0820 h1         1 FR6       0.080700
     31 HO           1.3540    -4.5460     0.0380 ho         1 FR6       0.443000
     32 H181        -0.8480    -2.5100    -0.0490 hc         1 FR6       0.065700
     33 H182        -0.5840    -1.1650     1.0440 hc         1 FR6       0.065700
     34 H191        -0.2500     0.3450    -1.0130 hc         1 FR6       0.053200
     35 H192        -0.5420    -1.0400    -2.0230 hc         1 FR6       0.053200
     36 H25         -2.7200    -1.8090    -2.5200 ha         1 FR6       0.109000
     37 H26         -5.1730    -1.4830    -2.4670 ha         1 FR6       0.114000
     38 H27         -6.1860     0.1450    -0.8930 ha         1 FR6       0.114000
     39 H2          -5.9600     1.8040     0.8620 ha         1 FR6       0.113000
     40 H4          -1.0100     1.2490     0.8590 ha         1 FR6       0.117000
     41 H6          -4.5440     3.1310     2.4120 ha         1 FR6       0.114000
     42 H7          -2.0720     2.8410     2.3980 ha         1 FR6       0.116000
     43 H91          3.5100    -3.5260     0.0580 hc         1 FR6       0.052033
     44 H92          3.7640    -2.3180     1.3350 hc         1 FR6       0.052033
     45 H93          3.4370    -4.0010     1.7700 hc         1 FR6       0.052033
@<TRIPOS>BOND
     1     1     2 1   
     2     1     5 2   
     3     1    25 1   
     4     2     3 1   
     5     2     9 1   
     6     3     4 2   
     7     3    26 1   
     8     4     5 1   
     9     5     6 1   
    10     6     7 2   
    11     6     8 1   
    12     8    27 1   
    13     8    28 1   
    14     9    10 1   
    15     9    12 1   
    16     9    29 1   
    17    10    11 1   
    18    10    24 1   
    19    10    30 1   
    20    11    31 1   
    21    12    13 1   
    22    12    32 1   
    23    12    33 1   
    24    13    14 1   
    25    13    34 1   
    26    13    35 1   
    27    14    15 ar  
    28    14    19 ar  
    29    15    16 ar  
    30    15    36 1   
    31    16    17 ar  
    32    16    37 1   
    33    17    18 ar  
    34    17    38 1   
    35    18    19 ar  
    36    18    20 ar  
    37    19    21 ar  
    38    20    22 ar  
    39    20    39 1   
    40    21    23 ar  
    41    21    40 1   
    42    22    23 ar  
    43    22    41 1   
    44    23    42 1   
    45    24    43 1   
    46    24    44 1   
    47    24    45 1   
@<TRIPOS>SUBSTRUCTURE
     1 FR6         1 TEMP              0 ****  ****    0 ROOT
