@<TRIPOS>MOLECULE
FR7
   39    40     1     0     0
SMALL
No Charge or Current Charge


@<TRIPOS>ATOM
      1 C1           3.1890     0.0810     0.7410 cc         1 FR7      -0.149000
      2 N2           2.3930     0.5490    -0.2840 na         1 FR7      -0.166500
      3 C3           2.8390    -0.0360    -1.4530 cc         1 FR7       0.388400
      4 N4           3.8660    -0.8390    -1.2180 nd         1 FR7      -0.671000
      5 C5           4.0940    -0.7740     0.1550 cd         1 FR7       0.162500
      6 C8           5.1440    -1.4910     0.9670 c          1 FR7       0.545600
      7 O9           5.2900    -1.3890     2.1770 o          1 FR7      -0.624100
      8 N10          5.9630    -2.3000     0.2540 nt         1 FR7      -0.594000
      9 C13          1.2680     1.5000    -0.1490 c3         1 FR7       0.048300
     10 C14          1.5350     2.8320    -0.9210 c3         1 FR7       0.160300
     11 O15          0.4740     3.7690    -0.6890 oh         1 FR7      -0.645000
     12 C18         -0.0820     0.8330    -0.5410 c3         1 FR7      -0.084400
     13 C2          -0.4210    -0.4390     0.2730 c3         1 FR7      -0.035100
     14 C22         -1.7950    -1.0030    -0.0890 ca         1 FR7      -0.063300
     15 C25         -1.8760    -2.0320    -1.0500 ca         1 FR7      -0.100000
     16 C26         -3.1180    -2.5750    -1.4150 ca         1 FR7      -0.097000
     17 C27         -4.2960    -2.0920    -0.8220 ca         1 FR7      -0.096000
     18 C28         -4.2330    -1.0660     0.1340 ca         1 FR7       0.120000
     19 C29         -2.9860    -0.5160     0.5060 ca         1 FR7       0.121000
     20 Cl1         -5.7360    -0.4840     0.8530 cl         1 FR7      -0.172000
     21 Cl2         -2.9270     0.7830     1.7080 cl         1 FR7      -0.179000
     22 C9           2.8610     3.5190    -0.5260 c3         1 FR7      -0.133100
     23 H1           3.0650     0.3730     1.7760 h4         1 FR7       0.174000
     24 H3           2.3820     0.1620    -2.4150 h5         1 FR7       0.059100
     25 H101         5.8310    -2.3750    -0.7450 hn         1 FR7       0.322500
     26 H102         6.6920    -2.8150     0.7230 hn         1 FR7       0.322500
     27 H13          1.2000     1.7570     0.9170 h1         1 FR7       0.067700
     28 H14          1.5850     2.5970    -1.9950 h1         1 FR7       0.079700
     29 HO           0.5650     4.0910     0.2340 ho         1 FR7       0.444000
     30 H181        -0.8950     1.5560    -0.4020 hc         1 FR7       0.067200
     31 H182        -0.0710     0.5840    -1.6090 hc         1 FR7       0.067200
     32 H21          0.3470    -1.2010     0.0940 hc         1 FR7       0.061200
     33 H22         -0.3630    -0.2160     1.3450 hc         1 FR7       0.061200
     34 H25         -0.9700    -2.4130    -1.5190 ha         1 FR7       0.123000
     35 H26         -3.1690    -3.3690    -2.1570 ha         1 FR7       0.124000
     36 H27         -5.2590    -2.5120    -1.1050 ha         1 FR7       0.134000
     37 H91          2.8980     3.7160     0.5520 hc         1 FR7       0.051700
     38 H92          3.7210     2.8910    -0.7880 hc         1 FR7       0.051700
     39 H93          2.9750     4.4720    -1.0560 hc         1 FR7       0.051700
@<TRIPOS>BOND
     1     1     2 1   
     2     1     5 2   
     3     1    23 1   
     4     2     3 1   
     5     2     9 1   
     6     3     4 2   
     7     3    24 1   
     8     4     5 1   
     9     5     6 1   
    10     6     7 2   
    11     6     8 1   
    12     8    25 1   
    13     8    26 1   
    14     9    10 1   
    15     9    12 1   
    16     9    27 1   
    17    10    11 1   
    18    10    22 1   
    19    10    28 1   
    20    11    29 1   
    21    12    13 1   
    22    12    30 1   
    23    12    31 1   
    24    13    14 1   
    25    13    32 1   
    26    13    33 1   
    27    14    15 ar  
    28    14    19 ar  
    29    15    16 ar  
    30    15    34 1   
    31    16    17 ar  
    32    16    35 1   
    33    17    18 ar  
    34    17    36 1   
    35    18    19 ar  
    36    18    20 1   
    37    19    21 1   
    38    22    37 1   
    39    22    38 1   
    40    22    39 1   
@<TRIPOS>SUBSTRUCTURE
     1 FR7         1 TEMP              0 ****  ****    0 ROOT
