@<TRIPOS>MOLECULE
FR7
   39    40     1     0     0
SMALL
bcc


@<TRIPOS>ATOM
      1 C1           3.1850     0.1470     0.7720 cc         1 FR7      -0.181600
      2 N2           2.3220     0.5330    -0.2020 na         1 FR7      -0.187900
      3 C3           2.6850    -0.1180    -1.3370 cc         1 FR7       0.388400
      4 N4           3.7190    -0.8890    -1.1430 nd         1 FR7      -0.671000
      5 C5           4.0450    -0.7360     0.1750 cd         1 FR7       0.227800
      6 C8           5.1670    -1.4370     0.8220 c          1 FR7       0.612600
      7 O9           5.4190    -1.2730     2.0110 o          1 FR7      -0.624100
      8 N10          5.8660    -2.2460     0.0130 nt         1 FR7      -0.661000
      9 C13          1.2330     1.4920    -0.0690 c3         1 FR7       0.019000
     10 C14          1.5620     2.7760    -0.8590 c3         1 FR7       0.137100
     11 O15          0.4990     3.6940    -0.7580 oh         1 FR7      -0.582800
     12 C18         -0.0910     0.8600    -0.4830 c3         1 FR7      -0.084400
     13 C2          -0.4490    -0.3600     0.3680 c3         1 FR7      -0.035100
     14 C22         -1.7620    -0.9610    -0.0440 ca         1 FR7      -0.063300
     15 C25         -1.7830    -2.0510    -0.9090 ca         1 FR7      -0.118000
     16 C26         -2.9740    -2.6170    -1.3340 ca         1 FR7      -0.115000
     17 C27         -4.1830    -2.1010    -0.8970 ca         1 FR7      -0.114000
     18 C28         -4.1850    -1.0140    -0.0380 ca         1 FR7       0.028400
     19 C29         -2.9860    -0.4440     0.3820 ca         1 FR7       0.029400
     20 CL1         -5.6930    -0.3800     0.5070 cl         1 FR7      -0.080400
     21 CL2         -3.0210     0.9130     1.4490 cl         1 FR7      -0.087400
     22 C9           2.8830     3.3940    -0.4260 c3         1 FR7      -0.133100
     23 H1           3.1190     0.5180     1.7810 h4         1 FR7       0.192000
     24 H3           2.1600     0.0060    -2.2720 h5         1 FR7       0.059100
     25 H101         5.6240    -2.3410    -0.9590 hn         1 FR7       0.322500
     26 H102         6.6570    -2.7600     0.3610 hn         1 FR7       0.322500
     27 H13          1.1870     1.7460     0.9950 h1         1 FR7       0.067700
     28 H14          1.6210     2.5150    -1.9210 h1         1 FR7       0.079700
     29 HO           0.4910     4.0600     0.1330 ho         1 FR7       0.405000
     30 H181        -0.8710     1.6150    -0.3890 hc         1 FR7       0.067200
     31 H182        -0.0590     0.5790    -1.5400 hc         1 FR7       0.067200
     32 H21          0.3230    -1.1260     0.2700 hc         1 FR7       0.061200
     33 H22         -0.4700    -0.0760     1.4230 hc         1 FR7       0.061200
     34 H25         -0.8420    -2.4640    -1.2490 ha         1 FR7       0.141000
     35 H26         -2.9650    -3.4650    -2.0050 ha         1 FR7       0.142000
     36 H27         -5.1200    -2.5380    -1.2150 ha         1 FR7       0.152000
     37 H91          2.8660     3.6580     0.6340 hc         1 FR7       0.051700
     38 H92          3.7240     2.7190    -0.5870 hc         1 FR7       0.051700
     39 H93          3.0790     4.3010    -0.9980 hc         1 FR7       0.051700
@<TRIPOS>BOND
     1     1     2 1   
     2     1     5 2   
     3     1    23 1   
     4     2     3 1   
     5     2     9 1   
     6     3     4 2   
     7     3    24 1   
     8     4     5 1   
     9     5     6 1   
    10     6     7 2   
    11     6     8 1   
    12     8    25 1   
    13     8    26 1   
    14     9    10 1   
    15     9    12 1   
    16     9    27 1   
    17    10    11 1   
    18    10    22 1   
    19    10    28 1   
    20    11    29 1   
    21    12    13 1   
    22    12    30 1   
    23    12    31 1   
    24    13    14 1   
    25    13    32 1   
    26    13    33 1   
    27    14    15 ar  
    28    14    19 ar  
    29    15    16 ar  
    30    15    34 1   
    31    16    17 ar  
    32    16    35 1   
    33    17    18 ar  
    34    17    36 1   
    35    18    19 ar  
    36    18    20 1   
    37    19    21 1   
    38    22    37 1   
    39    22    38 1   
    40    22    39 1   
@<TRIPOS>SUBSTRUCTURE
     1 FR7         1 TEMP              0 ****  ****    0 ROOT
