@<TRIPOS>MOLECULE
FR8
   66    69     1     0     0
SMALL
No Charge or Current Charge


@<TRIPOS>ATOM
      1 C1           1.7690     1.1630     6.0790 cc         1 FR8      -0.159000
      2 N2           1.3730     0.9310     4.7770 na         1 FR8      -0.172500
      3 C3           2.1750    -0.0760     4.2760 cc         1 FR8       0.412400
      4 N4           3.0450    -0.4850     5.1900 nd         1 FR8      -0.675000
      5 C5           2.7990     0.2860     6.3240 cd         1 FR8       0.169500
      6 C8           3.5000     0.2400     7.6600 c          1 FR8       0.545600
      7 O9           3.2340     0.9490     8.6200 o          1 FR8      -0.626100
      8 N10          4.4940    -0.6740     7.7530 nt         1 FR8      -0.593000
      9 C13          0.2880     1.6290     4.0580 c3         1 FR8       0.091300
     10 C14          0.8280     2.4880     2.8760 c3         1 FR8       0.145600
     11 O15          1.3270     1.6680     1.8060 oh         1 FR8      -0.662000
     12 C18         -0.8480     0.6490     3.6620 c3         1 FR8      -0.113400
     13 C19         -2.1060     1.3380     3.0880 c3         1 FR8       0.085600
     14 N22         -3.1820     0.3830     2.7690 na         1 FR8      -0.095700
     15 C27         -4.3070     0.0760     3.5600 cc         1 FR8      -0.163100
     16 C28         -4.9940    -0.8760     2.8190 cd         1 FR8      -0.228200
     17 C29         -4.3020    -1.1560     1.5870 ca         1 FR8      -0.104800
     18 C30         -3.1920    -0.3620     1.5930 ca         1 FR8      -0.035200
     19 C31         -4.5960    -2.0260     0.5340 ca         1 FR8      -0.047000
     20 C32         -3.6940    -2.0690    -0.5520 ca         1 FR8      -0.128000
     21 C33         -2.5280    -1.2520    -0.5610 ca         1 FR8      -0.017000
     22 C34         -2.2780    -0.3850     0.5270 ca         1 FR8      -0.167000
     23 N1          -1.5820    -1.2470    -1.6230 ns         1 FR8      -0.166000
     24 C2          -1.4680    -2.0060    -2.7810 c          1 FR8       0.602100
     25 O1          -2.2260    -2.9180    -3.0910 o          1 FR8      -0.576100
     26 C4          -0.2620    -1.6370    -3.6580 c3         1 FR8      -0.158400
     27 C6          -0.6960    -0.8880    -4.9410 c3         1 FR8      -0.066400
     28 C7           1.7310    -0.2680    -8.9780 ca         1 FR8      -0.107500
     29 C11          1.2630     0.6230    -7.9920 ca         1 FR8      -0.078300
     30 C9           1.9140     1.8590    -7.8120 ca         1 FR8      -0.107500
     31 C12          3.0190     2.2020    -8.6110 ca         1 FR8      -0.110000
     32 C10          3.4800     1.3100    -9.5940 ca         1 FR8      -0.112000
     33 C15          2.8360     0.0740    -9.7770 ca         1 FR8      -0.110000
     34 C16          0.4960    -0.4980    -5.8420 c3         1 FR8      -0.076400
     35 C17          0.0690     0.2490    -7.1240 c3         1 FR8      -0.031100
     36 H1           1.3100     1.9060     6.7200 h4         1 FR8       0.171000
     37 H3           2.0720    -0.4590     3.2670 h5         1 FR8       0.069100
     38 H101         5.0120    -0.7680     8.6130 hn         1 FR8       0.323000
     39 H102         4.7050    -1.2540     6.9520 hn         1 FR8       0.323000
     40 H13         -0.1460     2.3390     4.7740 h1         1 FR8       0.069700
     41 H141         0.0250     3.1400     2.5090 h1         1 FR8       0.036200
     42 H142         1.6250     3.1430     3.2540 h1         1 FR8       0.036200
     43 H15          1.6720     2.2740     1.1130 ho         1 FR8       0.454000
     44 H181        -1.1440     0.0770     4.5510 hc         1 FR8       0.075700
     45 H182        -0.4720    -0.0800     2.9350 hc         1 FR8       0.075700
     46 H191        -1.8510     1.8920     2.1770 h1         1 FR8       0.056200
     47 H192        -2.4910     2.0600     3.8200 h1         1 FR8       0.056200
     48 H27         -4.5100     0.5330     4.5240 h4         1 FR8       0.210000
     49 H28         -5.9260    -1.3440     3.1330 ha         1 FR8       0.208000
     50 H31         -5.4880    -2.6480     0.5490 ha         1 FR8       0.119000
     51 H32         -3.9220    -2.7390    -1.3740 ha         1 FR8       0.129000
     52 H34         -1.3940     0.2480     0.5370 ha         1 FR8       0.120000
     53 HN1         -0.8550    -0.5520    -1.5150 hn         1 FR8       0.146000
     54 H41          0.2520    -2.5600    -3.9520 hc         1 FR8       0.055700
     55 H42          0.4260    -0.9930    -3.0960 hc         1 FR8       0.055700
     56 H61         -1.2490     0.0180    -4.6600 hc         1 FR8       0.056200
     57 H62         -1.3890    -1.5200    -5.5130 hc         1 FR8       0.056200
     58 H9           1.5650     2.5540    -7.0520 ha         1 FR8       0.110000
     59 H12          3.5180     3.1580    -8.4680 ha         1 FR8       0.111000
     60 H10          4.3360     1.5750   -10.2120 ha         1 FR8       0.112000
     61 H2           3.1930    -0.6180   -10.5360 ha         1 FR8       0.111000
     62 H161         1.0490    -1.4030    -6.1230 hc         1 FR8       0.039700
     63 H162         1.1880     0.1350    -5.2730 hc         1 FR8       0.039700
     64 H171        -0.6270    -0.3790    -7.6920 hc         1 FR8       0.049200
     65 H172        -0.4900     1.1510    -6.8460 hc         1 FR8       0.049200
     66 H7           1.2400    -1.2280    -9.1240 ha         1 FR8       0.110000
@<TRIPOS>BOND
     1     1     2 1   
     2     1     5 2   
     3     1    36 1   
     4     2     3 1   
     5     2     9 1   
     6     3     4 2   
     7     3    37 1   
     8     4     5 1   
     9     5     6 1   
    10     6     7 2   
    11     6     8 1   
    12     8    38 1   
    13     8    39 1   
    14     9    10 1   
    15     9    12 1   
    16     9    40 1   
    17    10    11 1   
    18    10    41 1   
    19    10    42 1   
    20    11    43 1   
    21    12    13 1   
    22    12    44 1   
    23    12    45 1   
    24    13    14 1   
    25    13    46 1   
    26    13    47 1   
    27    14    15 1   
    28    14    18 1   
    29    15    16 2   
    30    15    48 1   
    31    16    17 1   
    32    16    49 1   
    33    17    18 ar  
    34    17    19 ar  
    35    18    22 ar  
    36    19    20 ar  
    37    19    50 1   
    38    20    21 ar  
    39    20    51 1   
    40    21    22 ar  
    41    21    23 1   
    42    22    52 1   
    43    23    24 1   
    44    23    53 1   
    45    24    25 2   
    46    24    26 1   
    47    26    27 1   
    48    26    54 1   
    49    26    55 1   
    50    27    34 1   
    51    27    56 1   
    52    27    57 1   
    53    28    29 ar  
    54    28    33 ar  
    55    28    66 1   
    56    29    30 ar  
    57    29    35 1   
    58    30    31 ar  
    59    30    58 1   
    60    31    32 ar  
    61    31    59 1   
    62    32    33 ar  
    63    32    60 1   
    64    33    61 1   
    65    34    35 1   
    66    34    62 1   
    67    34    63 1   
    68    35    64 1   
    69    35    65 1   
@<TRIPOS>SUBSTRUCTURE
     1 FR8         1 TEMP              0 ****  ****    0 ROOT
