@<TRIPOS>MOLECULE
FR8
   66    69     1     0     0
SMALL
abcg2


@<TRIPOS>ATOM
      1 C1           2.0260     0.4920     5.8010 cc         1 FR8      -0.159000
      2 N2           1.3100     0.5260     4.6470 na         1 FR8      -0.172500
      3 C3           1.9130    -0.3240     3.7780 cc         1 FR8       0.412400
      4 N4           2.9580    -0.8970     4.3090 nd         1 FR8      -0.675000
      5 C5           3.0440    -0.3960     5.5770 cd         1 FR8       0.169500
      6 C8           4.0940    -0.7840     6.5340 c          1 FR8       0.545600
      7 O9           4.1250    -0.3230     7.6700 o          1 FR8      -0.626100
      8 N10          4.9850    -1.6660     6.0600 nt         1 FR8      -0.593000
      9 C13          0.1360     1.3560     4.3960 c3         1 FR8       0.091300
     10 C14          0.4810     2.5200     3.4800 c3         1 FR8       0.145600
     11 O15          0.6710     2.0380     2.1730 oh         1 FR8      -0.662000
     12 C18         -1.0130     0.4850     3.8910 c3         1 FR8      -0.113400
     13 C19         -2.2990     1.2760     3.6710 c3         1 FR8       0.085600
     14 N22         -3.3430     0.4490     3.1140 na         1 FR8      -0.095700
     15 C27         -4.3750    -0.1320     3.8020 cc         1 FR8      -0.163100
     16 C28         -5.1440    -0.8780     2.9570 cd         1 FR8      -0.228200
     17 C29         -4.5530    -0.7630     1.6610 ca         1 FR8      -0.104800
     18 C30         -3.4260     0.0740     1.8030 ca         1 FR8      -0.035200
     19 C31         -4.8540    -1.2720     0.3930 ca         1 FR8      -0.047000
     20 C32         -4.0510    -0.9430    -0.6790 ca         1 FR8      -0.128000
     21 C33         -2.9250    -0.1150    -0.5120 ca         1 FR8      -0.017000
     22 C34         -2.5950     0.3980     0.7310 ca         1 FR8      -0.167000
     23 N1          -2.1320     0.2440    -1.6230 ns         1 FR8      -0.166000
     24 C2          -1.5550    -0.6320    -2.4850 c          1 FR8       0.602100
     25 O1          -1.7480    -1.8340    -2.4360 o          1 FR8      -0.576100
     26 C4          -0.6380     0.0190    -3.4980 c3         1 FR8      -0.158400
     27 C6          -0.3730    -0.8380    -4.7260 c3         1 FR8      -0.066400
     28 C7           3.1620    -0.3400    -7.7320 ca         1 FR8      -0.107500
     29 C11          1.7800    -0.3040    -7.9020 ca         1 FR8      -0.078300
     30 C9           1.2630     0.4320    -8.9660 ca         1 FR8      -0.107500
     31 C12          2.1030     1.1120    -9.8380 ca         1 FR8      -0.110000
     32 C10          3.4790     1.0710    -9.6570 ca         1 FR8      -0.112000
     33 C15          4.0070     0.3400    -8.6000 ca         1 FR8      -0.110000
     34 C16          0.5620    -0.1410    -5.7070 c3         1 FR8      -0.076400
     35 C17          0.8740    -1.0050    -6.9290 c3         1 FR8      -0.031100
     36 H1           1.7600     1.0820     6.6620 h4         1 FR8       0.171000
     37 H3           1.5530    -0.4880     2.7760 h5         1 FR8       0.069100
     38 H101         5.7390    -1.9940     6.6390 hn         1 FR8       0.323000
     39 H102         4.9200    -2.0120     5.1180 hn         1 FR8       0.323000
     40 H13         -0.1420     1.7830     5.3630 h1         1 FR8       0.069700
     41 H141        -0.3320     3.2530     3.5330 h1         1 FR8       0.036200
     42 H142         1.3770     3.0180     3.8710 h1         1 FR8       0.036200
     43 H15          1.0140     2.7520     1.6290 ho         1 FR8       0.454000
     44 H181        -1.1980    -0.3060     4.6210 hc         1 FR8       0.075700
     45 H182        -0.7300    -0.0040     2.9570 hc         1 FR8       0.075700
     46 H191        -2.1360     2.1140     2.9910 h1         1 FR8       0.056200
     47 H192        -2.6590     1.6970     4.6100 h1         1 FR8       0.056200
     48 H27         -4.4860     0.0420     4.8610 h4         1 FR8       0.210000
     49 H28         -6.0270    -1.4350     3.2270 ha         1 FR8       0.208000
     50 H31         -5.7180    -1.9080     0.2450 ha         1 FR8       0.119000
     51 H32         -4.2980    -1.3110    -1.6650 ha         1 FR8       0.129000
     52 H34         -1.7140     1.0170     0.8560 ha         1 FR8       0.120000
     53 HN1         -1.8240     1.2030    -1.6660 hn         1 FR8       0.146000
     54 H41          0.3080     0.2440    -2.9930 hc         1 FR8       0.055700
     55 H42         -1.0530     0.9870    -3.7920 hc         1 FR8       0.055700
     56 H61         -1.3170    -1.0700    -5.2290 hc         1 FR8       0.056200
     57 H62          0.0620    -1.7940    -4.4270 hc         1 FR8       0.056200
     58 H9           0.1900     0.4690    -9.1180 ha         1 FR8       0.110000
     59 H12          1.6800     1.6720   -10.6630 ha         1 FR8       0.111000
     60 H10          4.1350     1.6000   -10.3360 ha         1 FR8       0.112000
     61 H2           5.0790     0.2970    -8.4510 ha         1 FR8       0.111000
     62 H161         1.4980     0.1190    -5.2010 hc         1 FR8       0.039700
     63 H162         0.1170     0.8040    -6.0330 hc         1 FR8       0.039700
     64 H171         1.3420    -1.9360    -6.5970 hc         1 FR8       0.049200
     65 H172        -0.0610    -1.2840    -7.4230 hc         1 FR8       0.049200
     66 H7           3.5840    -0.9060    -6.9100 ha         1 FR8       0.110000
@<TRIPOS>BOND
     1     1     2 1   
     2     1     5 2   
     3     1    36 1   
     4     2     3 1   
     5     2     9 1   
     6     3     4 2   
     7     3    37 1   
     8     4     5 1   
     9     5     6 1   
    10     6     7 2   
    11     6     8 1   
    12     8    38 1   
    13     8    39 1   
    14     9    10 1   
    15     9    12 1   
    16     9    40 1   
    17    10    11 1   
    18    10    41 1   
    19    10    42 1   
    20    11    43 1   
    21    12    13 1   
    22    12    44 1   
    23    12    45 1   
    24    13    14 1   
    25    13    46 1   
    26    13    47 1   
    27    14    15 1   
    28    14    18 1   
    29    15    16 2   
    30    15    48 1   
    31    16    17 1   
    32    16    49 1   
    33    17    18 ar  
    34    17    19 ar  
    35    18    22 ar  
    36    19    20 ar  
    37    19    50 1   
    38    20    21 ar  
    39    20    51 1   
    40    21    22 ar  
    41    21    23 1   
    42    22    52 1   
    43    23    24 1   
    44    23    53 1   
    45    24    25 2   
    46    24    26 1   
    47    26    27 1   
    48    26    54 1   
    49    26    55 1   
    50    27    34 1   
    51    27    56 1   
    52    27    57 1   
    53    28    29 ar  
    54    28    33 ar  
    55    28    66 1   
    56    29    30 ar  
    57    29    35 1   
    58    30    31 ar  
    59    30    58 1   
    60    31    32 ar  
    61    31    59 1   
    62    32    33 ar  
    63    32    60 1   
    64    33    61 1   
    65    34    35 1   
    66    34    62 1   
    67    34    63 1   
    68    35    64 1   
    69    35    65 1   
@<TRIPOS>SUBSTRUCTURE
     1 FR8         1 TEMP              0 ****  ****    0 ROOT
