@<TRIPOS>MOLECULE
FR9
   59    62     1     0     0
SMALL
No Charge or Current Charge


@<TRIPOS>ATOM
      1 C1           1.3620     0.7410     5.4560 cc         1 FR9      -0.159000
      2 N2           1.0660     0.7110     4.1090 na         1 FR9      -0.172500
      3 C3           1.9520    -0.1640     3.5120 cc         1 FR9       0.413400
      4 N4           2.7810    -0.6820     4.4080 nd         1 FR9      -0.676000
      5 C5           2.4200    -0.1200     5.6310 cd         1 FR9       0.169500
      6 C8           3.0340    -0.3560     6.9900 c          1 FR9       0.545600
      7 O9           2.6680     0.1730     8.0300 o          1 FR9      -0.627100
      8 N10          4.0680    -1.2300     7.0060 nt         1 FR9      -0.593000
      9 C13         -0.0060     1.4720     3.4350 c3         1 FR9       0.092300
     10 C14          0.5630     2.5370     2.4520 c3         1 FR9       0.145600
     11 O15          1.1770     1.9280     1.3030 oh         1 FR9      -0.662000
     12 C18         -1.0600     0.5230     2.8030 c3         1 FR9      -0.114400
     13 C19         -2.3130     1.2430     2.2580 c3         1 FR9       0.085600
     14 N22         -3.3150     0.3090     1.7160 na         1 FR9      -0.097700
     15 C27         -4.4690    -0.1700     2.3680 cc         1 FR9      -0.165100
     16 C28         -5.0590    -1.0160     1.4380 cd         1 FR9      -0.226200
     17 C29         -4.2790    -1.0610     0.2280 ca         1 FR9      -0.107800
     18 C30         -3.2140    -0.2330     0.4370 ca         1 FR9      -0.032200
     19 C31         -4.4610    -1.7600    -0.9690 ca         1 FR9      -0.046000
     20 C32         -3.4930    -1.5870    -1.9820 ca         1 FR9      -0.127000
     21 C33         -2.3750    -0.7290    -1.7820 ca         1 FR9      -0.002000
     22 C34         -2.2370    -0.0430    -0.5520 ca         1 FR9      -0.180000
     23 N1          -1.3660    -0.5140    -2.7600 ns         1 FR9      -0.170000
     24 C2          -1.1920    -1.0050    -4.0430 c          1 FR9       0.655100
     25 O1          -1.9450    -1.7790    -4.6170 o          1 FR9      -0.618100
     26 N3          -0.0530    -0.5230    -4.6360 ns         1 FR9      -0.524900
     27 C6           0.3800    -0.8720    -5.9860 c3         1 FR9       0.157300
     28 C7           2.9180    -0.7770    -6.0570 ca         1 FR9      -0.097000
     29 C11          1.6800    -0.1670    -6.3410 ca         1 FR9      -0.112300
     30 C9           1.6570     1.1030    -6.9490 ca         1 FR9      -0.097000
     31 C12          2.8590     1.7560    -7.2730 ca         1 FR9      -0.112500
     32 C10          4.0920     1.1420    -6.9900 ca         1 FR9      -0.105000
     33 C15          4.1200    -0.1240    -6.3810 ca         1 FR9      -0.112500
     34 H1           0.8230     1.3480     6.1740 h4         1 FR9       0.170000
     35 H3           1.9350    -0.3800     2.4490 h5         1 FR9       0.069100
     36 H101         4.5320    -1.4420     7.8760 hn         1 FR9       0.323000
     37 H102         4.3610    -1.6600     6.1400 hn         1 FR9       0.323000
     38 H13         -0.5250     2.0330     4.2230 h1         1 FR9       0.069700
     39 H141        -0.2500     3.2040     2.1350 h1         1 FR9       0.036200
     40 H142         1.2940     3.1550     2.9890 h1         1 FR9       0.036200
     41 H15          1.5310     2.6560     0.7440 ho         1 FR9       0.453000
     42 H181        -1.3810    -0.2010     3.5620 hc         1 FR9       0.076700
     43 H182        -0.5970    -0.0580     1.9950 hc         1 FR9       0.076700
     44 H191        -2.0300     1.9480     1.4670 h1         1 FR9       0.055200
     45 H192        -2.7800     1.8200     3.0660 h1         1 FR9       0.055200
     46 H27         -4.7540     0.1150     3.3770 h4         1 FR9       0.210000
     47 H28         -5.9820    -1.5670     1.6080 ha         1 FR9       0.207000
     48 H31         -5.3170    -2.4150    -1.1140 ha         1 FR9       0.119000
     49 H32         -3.6290    -2.1280    -2.9120 ha         1 FR9       0.133000
     50 H34         -1.3890     0.6150    -0.3800 ha         1 FR9       0.117000
     51 HN1         -0.6380     0.1180    -2.4560 hn         1 FR9       0.138000
     52 HN3          0.5210     0.1150    -4.0990 hn         1 FR9       0.305500
     53 H61         -0.4050    -0.5860    -6.7000 h1         1 FR9       0.062200
     54 H62          0.5160    -1.9600    -6.0500 h1         1 FR9       0.062200
     55 H9           0.7070     1.5860    -7.1700 ha         1 FR9       0.116500
     56 H12          2.8360     2.7370    -7.7430 ha         1 FR9       0.114000
     57 H10          5.0220     1.6480    -7.2400 ha         1 FR9       0.113000
     58 H2           5.0740    -0.5990    -6.1600 ha         1 FR9       0.114000
     59 H7           2.9500    -1.7560    -5.5830 ha         1 FR9       0.116500
@<TRIPOS>BOND
     1     1     2 1   
     2     1     5 2   
     3     1    34 1   
     4     2     3 1   
     5     2     9 1   
     6     3     4 2   
     7     3    35 1   
     8     4     5 1   
     9     5     6 1   
    10     6     7 2   
    11     6     8 1   
    12     8    36 1   
    13     8    37 1   
    14     9    10 1   
    15     9    12 1   
    16     9    38 1   
    17    10    11 1   
    18    10    39 1   
    19    10    40 1   
    20    11    41 1   
    21    12    13 1   
    22    12    42 1   
    23    12    43 1   
    24    13    14 1   
    25    13    44 1   
    26    13    45 1   
    27    14    15 1   
    28    14    18 1   
    29    15    16 2   
    30    15    46 1   
    31    16    17 1   
    32    16    47 1   
    33    17    18 ar  
    34    17    19 ar  
    35    18    22 ar  
    36    19    20 ar  
    37    19    48 1   
    38    20    21 ar  
    39    20    49 1   
    40    21    22 ar  
    41    21    23 1   
    42    22    50 1   
    43    23    24 1   
    44    23    51 1   
    45    24    25 2   
    46    24    26 1   
    47    26    27 1   
    48    26    52 1   
    49    27    29 1   
    50    27    53 1   
    51    27    54 1   
    52    28    29 ar  
    53    28    33 ar  
    54    28    59 1   
    55    29    30 ar  
    56    30    31 ar  
    57    30    55 1   
    58    31    32 ar  
    59    31    56 1   
    60    32    33 ar  
    61    32    57 1   
    62    33    58 1   
@<TRIPOS>SUBSTRUCTURE
     1 FR9         1 TEMP              0 ****  ****    0 ROOT
