@<TRIPOS>MOLECULE
FR9
   59    62     1     0     0
SMALL
bcc


@<TRIPOS>ATOM
      1 C1           1.2670     0.3280     5.4130 cc         1 FR9      -0.191600
      2 N2           0.7970     0.4140     4.1410 na         1 FR9      -0.193900
      3 C3           1.5200    -0.4530     3.3890 cc         1 FR9       0.413400
      4 N4           2.4090    -1.0870     4.1030 nd         1 FR9      -0.676000
      5 C5           2.2650    -0.6080     5.3750 cd         1 FR9       0.234800
      6 C8           3.0860    -1.0580     6.5100 c          1 FR9       0.612600
      7 O9           2.9410    -0.5820     7.6310 o          1 FR9      -0.627100
      8 N10          3.9840    -2.0080     6.2130 nt         1 FR9      -0.660000
      9 C13         -0.2490     1.3210     3.6790 c3         1 FR9       0.063000
     10 C14          0.3550     2.4680     2.8820 c3         1 FR9       0.122400
     11 O15          0.7950     1.9810     1.6390 oh         1 FR9      -0.599800
     12 C18         -1.3230     0.5360     2.9280 c3         1 FR9      -0.114400
     13 C19         -2.4930     1.4110     2.4870 c3         1 FR9       0.056300
     14 N22         -3.4350     0.6740     1.6770 na         1 FR9      -0.068400
     15 C27         -4.6380     0.1630     2.0910 cc         1 FR9      -0.115100
     16 C28         -5.2220    -0.5440     1.0810 cd         1 FR9      -0.176200
     17 C29         -4.3250    -0.4840    -0.0300 ca         1 FR9      -0.107800
     18 C30         -3.2170     0.2840     0.3850 ca         1 FR9      -0.032200
     19 C31         -4.3330    -0.9910    -1.3340 ca         1 FR9      -0.064000
     20 C32         -3.2660    -0.7400    -2.1710 ca         1 FR9      -0.145000
     21 C33         -2.1570     0.0090    -1.7280 ca         1 FR9       0.090600
     22 C34         -2.1240     0.5290    -0.4450 ca         1 FR9      -0.198000
     23 N1          -1.0820     0.2870    -2.5900 ns         1 FR9      -0.496100
     24 C2          -0.3900    -0.6750    -3.2840 c          1 FR9       0.789100
     25 O1          -0.7530    -1.8400    -3.3460 o          1 FR9      -0.618100
     26 N3           0.7150    -0.2020    -3.9150 ns         1 FR9      -0.591900
     27 C6           1.6500    -1.0600    -4.6010 c3         1 FR9       0.157300
     28 C7           3.5380    -0.3430    -6.0990 ca         1 FR9      -0.115000
     29 C11          2.1700    -0.4240    -5.8640 ca         1 FR9      -0.112300
     30 C9           1.2920     0.0760    -6.8240 ca         1 FR9      -0.115000
     31 C12          1.7730     0.6370    -7.9970 ca         1 FR9      -0.130500
     32 C10          3.1430     0.7100    -8.2260 ca         1 FR9      -0.123000
     33 C15          4.0250     0.2180    -7.2750 ca         1 FR9      -0.130500
     34 H1           0.8630     0.9210     6.2160 h4         1 FR9       0.188000
     35 H3           1.3560    -0.5850     2.3320 h5         1 FR9       0.069100
     36 H101         4.5950    -2.3750     6.9220 hn         1 FR9       0.323000
     37 H102         4.0570    -2.3780     5.2800 hn         1 FR9       0.323000
     38 H13         -0.6870     1.7560     4.5800 h1         1 FR9       0.069700
     39 H141        -0.4050     3.2500     2.7710 h1         1 FR9       0.036200
     40 H142         1.1730     2.9040     3.4680 h1         1 FR9       0.036200
     41 H15          1.1980     2.7050     1.1520 ho         1 FR9       0.414000
     42 H181        -1.7010    -0.2560     3.5790 hc         1 FR9       0.076700
     43 H182        -0.8880     0.0450     2.0560 hc         1 FR9       0.076700
     44 H191        -2.1520     2.2740     1.9120 h1         1 FR9       0.055200
     45 H192        -3.0240     1.8030     3.3540 h1         1 FR9       0.055200
     46 H27         -4.9920     0.3540     3.0920 h4         1 FR9       0.160000
     47 H28         -6.1760    -1.0440     1.1260 ha         1 FR9       0.157000
     48 H31         -5.1730    -1.5710    -1.6940 ha         1 FR9       0.137000
     49 H32         -3.2850    -1.1110    -3.1850 ha         1 FR9       0.151000
     50 H34         -1.2640     1.0930    -0.1010 ha         1 FR9       0.135000
     51 HN1         -0.6240     1.1730    -2.4420 hn         1 FR9       0.304500
     52 HN3          1.0200     0.7410    -3.7300 hn         1 FR9       0.305500
     53 H61          1.1370    -1.9910    -4.8420 h1         1 FR9       0.062200
     54 H62          2.4920    -1.3250    -3.9530 h1         1 FR9       0.062200
     55 H9           0.2230     0.0240    -6.6520 ha         1 FR9       0.134500
     56 H12          1.0800     1.0180    -8.7360 ha         1 FR9       0.132000
     57 H10          3.5190     1.1490    -9.1410 ha         1 FR9       0.131000
     58 H2           5.0930     0.2730    -7.4430 ha         1 FR9       0.132000
     59 H7           4.2320    -0.7200    -5.3560 ha         1 FR9       0.134500
@<TRIPOS>BOND
     1     1     2 1   
     2     1     5 2   
     3     1    34 1   
     4     2     3 1   
     5     2     9 1   
     6     3     4 2   
     7     3    35 1   
     8     4     5 1   
     9     5     6 1   
    10     6     7 2   
    11     6     8 1   
    12     8    36 1   
    13     8    37 1   
    14     9    10 1   
    15     9    12 1   
    16     9    38 1   
    17    10    11 1   
    18    10    39 1   
    19    10    40 1   
    20    11    41 1   
    21    12    13 1   
    22    12    42 1   
    23    12    43 1   
    24    13    14 1   
    25    13    44 1   
    26    13    45 1   
    27    14    15 1   
    28    14    18 1   
    29    15    16 2   
    30    15    46 1   
    31    16    17 1   
    32    16    47 1   
    33    17    18 ar  
    34    17    19 ar  
    35    18    22 ar  
    36    19    20 ar  
    37    19    48 1   
    38    20    21 ar  
    39    20    49 1   
    40    21    22 ar  
    41    21    23 1   
    42    22    50 1   
    43    23    24 1   
    44    23    51 1   
    45    24    25 2   
    46    24    26 1   
    47    26    27 1   
    48    26    52 1   
    49    27    29 1   
    50    27    53 1   
    51    27    54 1   
    52    28    29 ar  
    53    28    33 ar  
    54    28    59 1   
    55    29    30 ar  
    56    30    31 ar  
    57    30    55 1   
    58    31    32 ar  
    59    31    56 1   
    60    32    33 ar  
    61    32    57 1   
    62    33    58 1   
@<TRIPOS>SUBSTRUCTURE
     1 FR9         1 TEMP              0 ****  ****    0 ROOT
