@<TRIPOS>MOLECULE
FRA
   53    56     1     0     0
SMALL
No Charge or Current Charge


@<TRIPOS>ATOM
      1 C22          3.2600    -0.4060     8.0880 c3         1 FRA      -0.184100
      2 C1           2.2240    -0.7720     7.0290 c          1 FRA       0.608100
      3 O3           1.5670    -1.8030     7.1110 o          1 FRA      -0.575100
      4 N1           2.1150     0.1570     6.0020 ns         1 FRA      -0.149000
      5 C2           1.2970     0.2130     4.8390 ca         1 FRA      -0.015000
      6 C7           0.3560    -0.7800     4.4950 ca         1 FRA      -0.148000
      7 C6          -0.4180    -0.6550     3.3280 ca         1 FRA      -0.062000
      8 C5          -0.2650     0.4600     2.4820 ca         1 FRA      -0.067000
      9 C4           0.6730     1.4530     2.8260 ca         1 FRA      -0.062000
     10 C3           1.4440     1.3270     3.9930 ca         1 FRA      -0.148000
     11 N5          -1.0660     0.5770     1.2850 n          1 FRA      -0.218000
     12 C11         -2.4570     0.4450     1.3220 c          1 FRA       0.577000
     13 C10         -2.9500     0.6220    -0.1240 c5         1 FRA      -0.142700
     14 C9          -1.6610     0.9000    -0.9730 c5         1 FRA      -0.160700
     15 C8          -0.5050     0.8850     0.0410 c          1 FRA       0.569000
     16 O11         -3.1350     0.3350     2.3360 o          1 FRA      -0.506000
     17 O8           0.6680     1.1630    -0.1660 o          1 FRA      -0.473000
     18 C12         -3.7170    -0.6060    -0.6990 c6         1 FRA      -0.048700
     19 C17         -4.0910    -0.2860    -2.1770 c6         1 FRA      -0.072900
     20 C16         -2.8050     0.0050    -3.0190 c6         1 FRA      -0.096400
     21 C13         -2.7780    -1.8510    -0.6910 c6         1 FRA      -0.072900
     22 C15         -1.5160    -0.1330    -2.1430 c6         1 FRA       0.181400
     23 N15         -0.2870     0.1590    -2.8910 ns         1 FRA      -0.518900
     24 C18          0.1620    -0.4440    -4.0330 c          1 FRA       0.629100
     25 O18         -0.3900    -1.3580    -4.6240 o          1 FRA      -0.586000
     26 O19          1.3440     0.1330    -4.3890 os         1 FRA      -0.406100
     27 C19          2.0190    -0.3590    -5.5770 c3         1 FRA       0.026600
     28 C20          3.3580     0.3780    -5.8920 c          1 FRA       0.725000
     29 O20          3.7390     1.2830    -5.1570 o          1 FRA      -0.714500
     30 O21          3.9850     0.0150    -6.8790 o          1 FRA      -0.714500
     31 H221         3.0300     0.5900     8.4830 hc         1 FRA       0.062367
     32 H222         3.3300    -1.1530     8.8870 hc         1 FRA       0.062367
     33 H223         4.2280    -0.2450     7.6000 hc         1 FRA       0.062367
     34 HN1          2.7380     0.9490     6.0990 hn         1 FRA       0.146000
     35 H7           0.2060    -1.6580     5.1150 ha         1 FRA       0.128000
     36 H6          -1.1330    -1.4370     3.0790 ha         1 FRA       0.124000
     37 H4           0.8000     2.3320     2.1980 ha         1 FRA       0.124000
     38 H3           2.1620     2.1070     4.2410 ha         1 FRA       0.128000
     39 H10         -3.6660     1.4530    -0.1340 hc         1 FRA       0.083700
     40 H9          -1.6710     1.8890    -1.4460 hc         1 FRA       0.095700
     41 H12         -4.6240    -0.8070    -0.1100 hc         1 FRA       0.062700
     42 H171        -4.6420    -1.1300    -2.6150 hc         1 FRA       0.041700
     43 H172        -4.7690     0.5770    -2.2170 hc         1 FRA       0.041700
     44 H161        -2.7710    -0.6900    -3.8680 hc         1 FRA       0.068450
     45 H162        -2.8610     1.0130    -3.4520 hc         1 FRA       0.068450
     46 H131        -2.5140    -2.1300     0.3380 hc         1 FRA       0.041700
     47 H132        -3.3080    -2.7170    -1.1110 hc         1 FRA       0.041700
     48 HN5          0.3270     0.8790    -2.5330 hn         1 FRA       0.344500
     49 H191         2.2500    -1.4260    -5.4650 h1         1 FRA       0.029200
     50 H192         1.3690    -0.2450    -6.4540 h1         1 FRA       0.029200
     51 C14         -1.4850    -1.5690    -1.5220 c6         1 FRA      -0.096400
     52 H141        -1.4000    -2.3200    -2.3180 hc         1 FRA       0.068450
     53 H142        -0.5950    -1.7010    -0.8920 hc         1 FRA       0.068450
@<TRIPOS>BOND
     1     1     2 1   
     2     1    31 1   
     3     1    32 1   
     4     1    33 1   
     5     2     3 2   
     6     2     4 1   
     7     4     5 1   
     8     4    34 1   
     9     5     6 ar  
    10     5    10 ar  
    11     6     7 ar  
    12     6    35 1   
    13     7     8 ar  
    14     7    36 1   
    15     8     9 ar  
    16     8    11 1   
    17     9    10 ar  
    18     9    37 1   
    19    10    38 1   
    20    11    12 1   
    21    11    15 1   
    22    12    13 1   
    23    12    16 2   
    24    13    14 1   
    25    13    18 1   
    26    13    39 1   
    27    14    15 1   
    28    14    22 1   
    29    14    40 1   
    30    15    17 2   
    31    18    19 1   
    32    18    21 1   
    33    18    41 1   
    34    19    20 1   
    35    19    42 1   
    36    19    43 1   
    37    20    22 1   
    38    20    44 1   
    39    20    45 1   
    40    21    46 1   
    41    21    47 1   
    42    21    51 1   
    43    22    23 1   
    44    22    51 1   
    45    23    24 1   
    46    23    48 1   
    47    24    25 2   
    48    24    26 1   
    49    26    27 1   
    50    27    28 1   
    51    27    49 1   
    52    27    50 1   
    53    28    29 1   
    54    28    30 1   
    55    51    52 1   
    56    51    53 1   
@<TRIPOS>SUBSTRUCTURE
     1 FRA         1 TEMP              0 ****  ****    0 ROOT
