@<TRIPOS>MOLECULE
FRA
   53    56     1     0     0
SMALL
bcc


@<TRIPOS>ATOM
      1 C22          3.2290    -0.4490     7.9030 c3         1 FRA      -0.184100
      2 C1           2.4580    -0.8420     6.6690 c          1 FRA       0.675100
      3 O3           2.3350    -1.9960     6.3040 o          1 FRA      -0.575100
      4 N1           1.9310     0.2220     5.9990 ns         1 FRA      -0.475100
      5 C2           1.2000     0.2540     4.8150 ca         1 FRA       0.077600
      6 C7           0.8150    -0.8790     4.0930 ca         1 FRA      -0.166000
      7 C6           0.0800    -0.7330     2.9260 ca         1 FRA      -0.080000
      8 C5          -0.2810     0.5210     2.4660 ca         1 FRA       0.025600
      9 C4           0.0990     1.6510     3.1750 ca         1 FRA      -0.080000
     10 C3           0.8330     1.5160     4.3370 ca         1 FRA      -0.166000
     11 N5          -1.0460     0.6480     1.2790 n          1 FRA      -0.444600
     12 C11         -2.4290     0.5650     1.2570 c          1 FRA       0.719500
     13 C10         -2.8910     0.7380    -0.1670 c5         1 FRA      -0.142700
     14 C9          -1.6080     0.9680    -0.9780 c5         1 FRA      -0.160700
     15 C8          -0.4920     0.8980     0.0410 c          1 FRA       0.711500
     16 O11         -3.1070     0.3740     2.2330 o          1 FRA      -0.581500
     17 O8           0.6910     1.0410    -0.1500 o          1 FRA      -0.548500
     18 C12         -3.6420    -0.4910    -0.6890 c6         1 FRA      -0.048700
     19 C17         -4.0200    -0.2080    -2.1400 c6         1 FRA      -0.072900
     20 C16         -2.7520     0.0830    -2.9700 c6         1 FRA      -0.096400
     21 C13         -2.7330    -1.7170    -0.6340 c6         1 FRA      -0.072900
     22 C15         -1.4900    -0.0780    -2.1070 c6         1 FRA       0.181400
     23 N15         -0.2810     0.2180    -2.8590 ns         1 FRA      -0.585900
     24 C18          0.1520    -0.4720    -3.9350 c          1 FRA       0.745100
     25 O18         -0.4510    -1.3660    -4.4980 o          1 FRA      -0.635000
     26 O19          1.3490    -0.0270    -4.3180 os         1 FRA      -0.382900
     27 C19          1.9440    -0.6400    -5.4590 c3         1 FRA       0.003400
     28 C20          3.3080     0.0000    -5.7610 c          1 FRA       0.935600
     29 O20          3.7300     0.8840    -5.0020 o          1 FRA      -0.819800
     30 O21          3.8570    -0.4690    -6.7770 o          1 FRA      -0.819800
     31 H221         2.6620     0.2400     8.5290 hc         1 FRA       0.062367
     32 H222         3.4790    -1.3330     8.4840 hc         1 FRA       0.062367
     33 H223         4.1550     0.0540     7.6190 hc         1 FRA       0.062367
     34 HN1          2.1090     1.1280     6.4080 hn         1 FRA       0.312500
     35 H7           1.0750    -1.8680     4.4280 ha         1 FRA       0.146000
     36 H6          -0.2130    -1.6180     2.3740 ha         1 FRA       0.142000
     37 H4          -0.1780     2.6360     2.8230 ha         1 FRA       0.142000
     38 H3           1.1250     2.4050     4.8840 ha         1 FRA       0.146000
     39 H10         -3.5460     1.6120    -0.2020 hc         1 FRA       0.083700
     40 H9          -1.5910     1.9680    -1.4220 hc         1 FRA       0.095700
     41 H12         -4.5390    -0.6550    -0.0890 hc         1 FRA       0.062700
     42 H171        -4.5540    -1.0690    -2.5450 hc         1 FRA       0.041700
     43 H172        -4.7100     0.6370    -2.1850 hc         1 FRA       0.041700
     44 H161        -2.6930    -0.5930    -3.8210 hc         1 FRA       0.068450
     45 H162        -2.7710     1.1000    -3.3700 hc         1 FRA       0.068450
     46 H131        -2.4620    -1.9520     0.3980 hc         1 FRA       0.041700
     47 H132        -3.2850    -2.5840    -1.0000 hc         1 FRA       0.041700
     48 HN5          0.3830     0.8490    -2.4350 hn         1 FRA       0.344500
     49 H191         2.0810    -1.7120    -5.2890 h1         1 FRA       0.029200
     50 H192         1.2920    -0.5330    -6.3310 h1         1 FRA       0.029200
     51 C14         -1.4680    -1.4830    -1.4880 c6         1 FRA      -0.096400
     52 H141        -1.4070    -2.2180    -2.2890 hc         1 FRA       0.068450
     53 H142        -0.5610    -1.6050    -0.8890 hc         1 FRA       0.068450
@<TRIPOS>BOND
     1     1     2 1   
     2     1    31 1   
     3     1    32 1   
     4     1    33 1   
     5     2     3 2   
     6     2     4 1   
     7     4     5 1   
     8     4    34 1   
     9     5     6 ar  
    10     5    10 ar  
    11     6     7 ar  
    12     6    35 1   
    13     7     8 ar  
    14     7    36 1   
    15     8     9 ar  
    16     8    11 1   
    17     9    10 ar  
    18     9    37 1   
    19    10    38 1   
    20    11    12 1   
    21    11    15 1   
    22    12    13 1   
    23    12    16 2   
    24    13    14 1   
    25    13    18 1   
    26    13    39 1   
    27    14    15 1   
    28    14    22 1   
    29    14    40 1   
    30    15    17 2   
    31    18    19 1   
    32    18    21 1   
    33    18    41 1   
    34    19    20 1   
    35    19    42 1   
    36    19    43 1   
    37    20    22 1   
    38    20    44 1   
    39    20    45 1   
    40    21    46 1   
    41    21    47 1   
    42    21    51 1   
    43    22    23 1   
    44    22    51 1   
    45    23    24 1   
    46    23    48 1   
    47    24    25 2   
    48    24    26 1   
    49    26    27 1   
    50    27    28 1   
    51    27    49 1   
    52    27    50 1   
    53    28    29 1   
    54    28    30 1   
    55    51    52 1   
    56    51    53 1   
@<TRIPOS>SUBSTRUCTURE
     1 FRA         1 TEMP              0 ****  ****    0 ROOT
