@<TRIPOS>MOLECULE
FRB
   69    72     1     0     0
SMALL
No Charge or Current Charge


@<TRIPOS>ATOM
      1 N1           9.6400     2.1660     0.3670 n2         1 FRB      -0.912100
      2 C2           8.4880     1.9730    -0.0360 c2         1 FRB       0.816100
      3 N3           7.7290     2.9630    -0.3420 nv         1 FRB      -1.037200
      4 N4           7.7130     1.2370     0.7370 nu         1 FRB      -0.967400
      5 C5           6.6120     0.3180     0.2760 c3         1 FRB       0.179500
      6 C6           6.8890    -0.3070    -1.1430 c6         1 FRB      -0.072700
      7 C7           8.1570    -1.2180    -1.1370 c6         1 FRB      -0.071900
      8 C8           8.4390    -1.8250    -2.5330 c6         1 FRB      -0.071900
      9 C9           7.2200    -2.6200    -3.0540 c6         1 FRB      -0.075400
     10 C10          5.9530    -1.7340    -3.0750 c6         1 FRB      -0.071900
     11 C11          5.6700    -1.1210    -1.6800 c6         1 FRB      -0.071900
     12 C12          5.1960     0.9970     0.4050 c          1 FRB       0.597100
     13 O13          4.9520     2.1210    -0.0240 o          1 FRB      -0.628100
     14 N14          4.2430     0.2760     1.0950 ns         1 FRB      -0.489900
     15 C15          2.8570     0.7350     1.3390 c3         1 FRB       0.021000
     16 C16          2.0160    -0.3220     2.1030 c          1 FRB       0.597100
     17 O17          2.5090    -1.3980     2.4290 o          1 FRB      -0.615100
     18 N18          0.6740    -0.0120     2.4360 n          1 FRB      -0.404800
     19 C19         -0.2130    -0.9800     3.1360 c6         1 FRB       0.094500
     20 C20         -1.3540    -1.4470     2.2010 c6         1 FRB      -0.094400
     21 C23         -0.0520     1.1910     1.9430 c6         1 FRB       0.094500
     22 C22         -1.1850     0.7810     0.9730 c6         1 FRB      -0.094400
     23 C21         -2.1470    -0.2340     1.6460 c6         1 FRB       0.000600
     24 C24         -3.2090    -0.6880     0.6720 cc         1 FRB      -0.147300
     25 N25         -3.0520    -1.3830    -0.5250 na         1 FRB       0.005800
     26 N26         -4.2520    -1.6580    -1.1660 nc         1 FRB      -0.508800
     27 C28         -4.5590    -0.5240     0.7740 cd         1 FRB      -0.191000
     28 C27         -5.1520    -1.1070    -0.3680 cd         1 FRB       0.297500
     29 C29         -6.5950    -1.2050    -0.6580 ca         1 FRB      -0.095500
     30 C34         -7.4600    -0.0880    -0.5490 ca         1 FRB       0.132000
     31 Cl36        -6.8410     1.5020    -0.0740 cl         1 FRB      -0.172000
     32 C30         -7.1180    -2.4310    -1.1260 ca         1 FRB      -0.080000
     33 C31         -8.4820    -2.5610    -1.4350 ca         1 FRB      -0.105000
     34 C32         -9.3400    -1.4600    -1.2960 ca         1 FRB      -0.093000
     35 C33         -8.8320    -0.2250    -0.8620 ca         1 FRB       0.113000
     36 Cl35        -9.9390     1.1440    -0.7320 cl         1 FRB      -0.175000
     37 HN1          9.9300     1.3170     0.8600 hn         1 FRB       0.371400
     38 HN31         8.1050     3.7880     0.0930 hn         1 FRB       0.483500
     39 HN32         6.8030     2.7220    -0.0170 hn         1 FRB       0.483500
     40 HN4          8.1190     1.0430     1.6460 hn         1 FRB       0.476000
     41 H5           6.5840    -0.5280     0.9760 h1         1 FRB       0.050700
     42 H6           7.0550     0.5310    -1.8350 hc         1 FRB       0.084700
     43 H71          9.0400    -0.6510    -0.8140 hc         1 FRB       0.039950
     44 H72          8.0300    -2.0290    -0.4060 hc         1 FRB       0.039950
     45 H81          8.6900    -1.0240    -3.2420 hc         1 FRB       0.042200
     46 H82          9.3180    -2.4830    -2.4830 hc         1 FRB       0.042200
     47 H91          7.4250    -3.0020    -4.0630 hc         1 FRB       0.038700
     48 H92          7.0490    -3.4980    -2.4150 hc         1 FRB       0.038700
     49 H101         6.0760    -0.9300    -3.8140 hc         1 FRB       0.042200
     50 H102         5.0890    -2.3290    -3.4020 hc         1 FRB       0.042200
     51 H111         5.4140    -1.9230    -0.9730 hc         1 FRB       0.039950
     52 H112         4.7820    -0.4800    -1.7600 hc         1 FRB       0.039950
     53 H14          4.5130    -0.6380     1.4480 hn         1 FRB       0.345500
     54 H151         2.8760     1.6570     1.9330 h1         1 FRB       0.070200
     55 H152         2.3680     0.9370     0.3780 h1         1 FRB       0.070200
     56 H191         0.3520    -1.8540     3.4900 h1         1 FRB       0.061950
     57 H192        -0.6420    -0.4940     4.0240 h1         1 FRB       0.061950
     58 H201        -0.9250    -2.0300     1.3740 hc         1 FRB       0.056450
     59 H202        -2.0280    -2.1210     2.7450 hc         1 FRB       0.056450
     60 H231        -0.4860     1.7200     2.8040 h1         1 FRB       0.061950
     61 H232         0.6170     1.9030     1.4420 h1         1 FRB       0.061950
     62 H221        -0.7440     0.3440     0.0670 hc         1 FRB       0.056450
     63 H222        -1.7420     1.6730     0.6540 hc         1 FRB       0.056450
     64 H21         -2.6320     0.2710     2.4950 hc         1 FRB       0.070700
     65 H25         -2.1650    -1.6890    -0.9230 hn         1 FRB       0.372000
     66 H28         -5.0840    -0.0430     1.5920 ha         1 FRB       0.153000
     67 H30         -6.4640    -3.2940    -1.2390 ha         1 FRB       0.132000
     68 H31         -8.8730    -3.5150    -1.7830 ha         1 FRB       0.124000
     69 H32        -10.3960    -1.5580    -1.5360 ha         1 FRB       0.132000
@<TRIPOS>BOND
     1     1     2 2   
     2     1    37 1   
     3     2     3 1   
     4     2     4 1   
     5     3    38 1   
     6     3    39 1   
     7     4     5 1   
     8     4    40 1   
     9     5     6 1   
    10     5    12 1   
    11     5    41 1   
    12     6     7 1   
    13     6    11 1   
    14     6    42 1   
    15     7     8 1   
    16     7    43 1   
    17     7    44 1   
    18     8     9 1   
    19     8    45 1   
    20     8    46 1   
    21     9    10 1   
    22     9    47 1   
    23     9    48 1   
    24    10    11 1   
    25    10    49 1   
    26    10    50 1   
    27    11    51 1   
    28    11    52 1   
    29    12    13 2   
    30    12    14 1   
    31    14    15 1   
    32    14    53 1   
    33    15    16 1   
    34    15    54 1   
    35    15    55 1   
    36    16    17 2   
    37    16    18 1   
    38    18    19 1   
    39    18    21 1   
    40    19    20 1   
    41    19    56 1   
    42    19    57 1   
    43    20    23 1   
    44    20    58 1   
    45    20    59 1   
    46    21    22 1   
    47    21    60 1   
    48    21    61 1   
    49    22    23 1   
    50    22    62 1   
    51    22    63 1   
    52    23    24 1   
    53    23    64 1   
    54    24    25 1   
    55    24    27 2   
    56    25    26 1   
    57    25    65 1   
    58    26    28 2   
    59    27    28 1   
    60    27    66 1   
    61    28    29 1   
    62    29    30 ar  
    63    29    32 ar  
    64    30    31 1   
    65    30    35 ar  
    66    32    33 ar  
    67    32    67 1   
    68    33    34 ar  
    69    33    68 1   
    70    34    35 ar  
    71    34    69 1   
    72    35    36 1   
@<TRIPOS>SUBSTRUCTURE
     1 FRB         1 TEMP              0 ****  ****    0 ROOT
