@<TRIPOS>MOLECULE
FRB
   69    72     1     0     0
SMALL
bcc


@<TRIPOS>ATOM
      1 N1           9.1070     2.1850     1.4940 n2         1 FRB      -0.912100
      2 C2           8.0920     1.8040     0.8020 c2         1 FRB       0.816100
      3 N3           7.7250     2.5050    -0.3120 nv         1 FRB      -0.926800
      4 N4           7.3250     0.7030     1.1070 nu         1 FRB      -0.912200
      5 C5           6.4350    -0.0530     0.2420 c3         1 FRB       0.179500
      6 C6           6.9690    -0.3910    -1.1580 c6         1 FRB      -0.072700
      7 C7           8.3510    -1.0370    -1.0650 c6         1 FRB      -0.071900
      8 C8           8.8700    -1.4620    -2.4350 c6         1 FRB      -0.071900
      9 C9           7.8920    -2.3930    -3.1400 c6         1 FRB      -0.075400
     10 C10          6.5150    -1.7500    -3.2470 c6         1 FRB      -0.071900
     11 C11          5.9890    -1.3190    -1.8810 c6         1 FRB      -0.071900
     12 C12          5.0720     0.6350     0.1840 c          1 FRB       0.664100
     13 O13          4.9040     1.7040    -0.3990 o          1 FRB      -0.628100
     14 N14          4.0850     0.0090     0.8260 ns         1 FRB      -0.556900
     15 C15          2.7610     0.5560     0.9310 c3         1 FRB       0.021000
     16 C16          1.9250    -0.3430     1.8340 c          1 FRB       0.664100
     17 O17          2.4150    -1.3640     2.3000 o          1 FRB      -0.615100
     18 N18          0.6650     0.0470     2.0820 n          1 FRB      -0.471800
     19 C19         -0.2240    -0.7640     2.8980 c6         1 FRB       0.094500
     20 C20         -1.4370    -1.2090     2.0920 c6         1 FRB      -0.094400
     21 C23          0.0290     1.2300     1.5270 c6         1 FRB       0.094500
     22 C22         -1.1750     0.8490     0.6760 c6         1 FRB      -0.094400
     23 C21         -2.1610    -0.0000     1.4850 c6         1 FRB       0.000600
     24 C24         -3.3560    -0.4080     0.6910 cc         1 FRB      -0.096600
     25 N25         -3.2820    -1.0690    -0.4810 na         1 FRB       0.005400
     26 N26         -4.4650    -1.3610    -1.0010 nc         1 FRB      -0.508800
     27 C28         -4.6990    -0.2570     0.9450 cd         1 FRB      -0.274300
     28 C27         -5.3490    -0.8730    -0.1450 cd         1 FRB       0.362800
     29 C29         -6.7800    -1.1020    -0.3880 ca         1 FRB      -0.095500
     30 C34         -7.7670    -0.1450    -0.1370 ca         1 FRB       0.040400
     31 CL36        -7.3460     1.4230     0.4410 cl         1 FRB      -0.080400
     32 C30         -7.1790    -2.3340    -0.9080 ca         1 FRB      -0.098000
     33 C31         -8.5100    -2.6140    -1.1610 ca         1 FRB      -0.123000
     34 C32         -9.4830    -1.6660    -0.8930 ca         1 FRB      -0.111000
     35 C33         -9.1070    -0.4340    -0.3840 ca         1 FRB       0.021400
     36 CL35       -10.3260     0.7440    -0.0690 cl         1 FRB      -0.083400
     37 HN1          9.3160     1.5170     2.2270 hn         1 FRB       0.371400
     38 HN31         8.1650     3.4080    -0.3870 hn         1 FRB       0.428300
     39 HN32         6.7450     2.4970    -0.5610 hn         1 FRB       0.428300
     40 HN4          7.6590     0.1840     1.9010 hn         1 FRB       0.420800
     41 H5           6.3090    -1.0090     0.7570 h1         1 FRB       0.050700
     42 H6           7.0600     0.5270    -1.7450 hc         1 FRB       0.084700
     43 H71          9.0620    -0.3490    -0.6030 hc         1 FRB       0.039950
     44 H72          8.2990    -1.9140    -0.4080 hc         1 FRB       0.039950
     45 H81          9.0310    -0.5700    -3.0510 hc         1 FRB       0.042200
     46 H82          9.8450    -1.9420    -2.3280 hc         1 FRB       0.042200
     47 H91          8.2670    -2.6570    -4.1330 hc         1 FRB       0.038700
     48 H92          7.8110    -3.3300    -2.5790 hc         1 FRB       0.038700
     49 H101         6.5720    -0.8760    -3.9050 hc         1 FRB       0.042200
     50 H102         5.8070    -2.4400    -3.7130 hc         1 FRB       0.042200
     51 H111         5.8070    -2.2080    -1.2640 hc         1 FRB       0.039950
     52 H112         5.0200    -0.8300    -2.0100 hc         1 FRB       0.039950
     53 H14          4.2590    -0.8590     1.3120 hn         1 FRB       0.345500
     54 H151         2.8010     1.5700     1.3400 h1         1 FRB       0.070200
     55 H152         2.2920     0.6330    -0.0550 h1         1 FRB       0.070200
     56 H191         0.3180    -1.6230     3.2810 h1         1 FRB       0.061950
     57 H192        -0.5470    -0.1680     3.7570 h1         1 FRB       0.061950
     58 H201        -1.1140    -1.8930     1.3020 hc         1 FRB       0.056450
     59 H202        -2.1150    -1.7640     2.7410 hc         1 FRB       0.056450
     60 H231        -0.2900     1.8720     2.3540 h1         1 FRB       0.061950
     61 H232         0.7320     1.8100     0.9360 h1         1 FRB       0.061950
     62 H221        -0.8290     0.3030    -0.2060 hc         1 FRB       0.056450
     63 H222        -1.6610     1.7600     0.3220 hc         1 FRB       0.056450
     64 H21         -2.5320     0.6140     2.3130 hc         1 FRB       0.070700
     65 H25         -2.4500    -1.3330    -0.9860 hn         1 FRB       0.321700
     66 H28         -5.1390     0.2090     1.8100 ha         1 FRB       0.171000
     67 H30         -6.4250    -3.0840    -1.1030 ha         1 FRB       0.150000
     68 H31         -8.7970    -3.5770    -1.5590 ha         1 FRB       0.142000
     69 H32        -10.5280    -1.8770    -1.0760 ha         1 FRB       0.150000
@<TRIPOS>BOND
     1     1     2 2   
     2     1    37 1   
     3     2     3 1   
     4     2     4 1   
     5     3    38 1   
     6     3    39 1   
     7     4     5 1   
     8     4    40 1   
     9     5     6 1   
    10     5    12 1   
    11     5    41 1   
    12     6     7 1   
    13     6    11 1   
    14     6    42 1   
    15     7     8 1   
    16     7    43 1   
    17     7    44 1   
    18     8     9 1   
    19     8    45 1   
    20     8    46 1   
    21     9    10 1   
    22     9    47 1   
    23     9    48 1   
    24    10    11 1   
    25    10    49 1   
    26    10    50 1   
    27    11    51 1   
    28    11    52 1   
    29    12    13 2   
    30    12    14 1   
    31    14    15 1   
    32    14    53 1   
    33    15    16 1   
    34    15    54 1   
    35    15    55 1   
    36    16    17 2   
    37    16    18 1   
    38    18    19 1   
    39    18    21 1   
    40    19    20 1   
    41    19    56 1   
    42    19    57 1   
    43    20    23 1   
    44    20    58 1   
    45    20    59 1   
    46    21    22 1   
    47    21    60 1   
    48    21    61 1   
    49    22    23 1   
    50    22    62 1   
    51    22    63 1   
    52    23    24 1   
    53    23    64 1   
    54    24    25 1   
    55    24    27 2   
    56    25    26 1   
    57    25    65 1   
    58    26    28 2   
    59    27    28 1   
    60    27    66 1   
    61    28    29 1   
    62    29    30 ar  
    63    29    32 ar  
    64    30    31 1   
    65    30    35 ar  
    66    32    33 ar  
    67    32    67 1   
    68    33    34 ar  
    69    33    68 1   
    70    34    35 ar  
    71    34    69 1   
    72    35    36 1   
@<TRIPOS>SUBSTRUCTURE
     1 FRB         1 TEMP              0 ****  ****    0 ROOT
