@<TRIPOS>MOLECULE
FRC
   46    48     1     0     0
SMALL
bcc


@<TRIPOS>ATOM
      1 C1          50.6880    54.1090    21.2250 cc         1 FRC      -0.194600
      2 N2          50.7820    55.0340    22.2200 na         1 FRC      -0.183900
      3 C3          50.7340    54.3570    23.3930 cc         1 FRC       0.413400
      4 N4          50.6090    53.0720    23.2130 nd         1 FRC      -0.675000
      5 C5          50.5780    52.9000    21.8580 cd         1 FRC       0.228800
      6 C8          50.4320    51.5880    21.2060 c          1 FRC       0.613600
      7 O9          50.3680    51.4830    19.9850 o          1 FRC      -0.633100
      8 N10         50.3770    50.5460    22.0470 nt         1 FRC      -0.659000
      9 C13         50.9470    56.4770    22.0890 c3         1 FRC       0.060000
     10 C14         52.4150    56.8590    21.8640 c3         1 FRC       0.141100
     11 O15         53.1170    56.3870    22.9920 oh         1 FRC      -0.597800
     12 C18         50.0110    57.0560    21.0340 c3         1 FRC      -0.127400
     13 C2          48.5490    56.9320    21.4450 c3         1 FRC       0.139400
     14 C9          53.0150    56.3410    20.5670 c3         1 FRC      -0.136100
     15 O1          47.6740    57.4360    20.4510 os         1 FRC      -0.320900
     16 C11         46.7020    53.3500    15.6380 ca         1 FRC      -0.134000
     17 C17         46.3020    54.6470    15.8250 ca         1 FRC      -0.112000
     18 C12         46.6510    55.3450    17.0030 ca         1 FRC      -0.066000
     19 C4          47.4220    54.6910    17.9970 ca         1 FRC      -0.002000
     20 C15         47.8230    53.3530    17.7760 ca         1 FRC      -0.124000
     21 C6          47.4720    52.7000    16.6250 ca         1 FRC      -0.115000
     22 C7          46.2620    56.6870    17.2320 ca         1 FRC      -0.086000
     23 C16         46.6200    57.3410    18.3730 ca         1 FRC      -0.148000
     24 C19         47.3930    56.6860    19.3660 ca         1 FRC       0.132100
     25 C10         47.7800    55.3830    19.1790 ca         1 FRC      -0.217000
     26 H1          50.7090    54.3600    20.1780 h4         1 FRC       0.192000
     27 H3          50.7840    54.8630    24.3450 h5         1 FRC       0.061100
     28 H101        50.2780    49.6080    21.6960 hn         1 FRC       0.323000
     29 H102        50.4400    50.6810    23.0420 hn         1 FRC       0.323000
     30 H13         50.6620    56.8940    23.0600 h1         1 FRC       0.076700
     31 H14         52.4290    57.9580    21.8320 h1         1 FRC       0.037700
     32 HO          54.0530    56.5790    22.8730 ho         1 FRC       0.416000
     33 H181        50.1840    56.5900    20.0610 hc         1 FRC       0.069200
     34 H182        50.2550    58.1130    20.9130 hc         1 FRC       0.069200
     35 H21         48.3650    57.5450    22.3280 h1         1 FRC       0.061200
     36 H22         48.2870    55.9040    21.7130 h1         1 FRC       0.061200
     37 H91         52.4590    56.6910    19.6970 hc         1 FRC       0.051700
     38 H92         54.0370    56.7090    20.4590 hc         1 FRC       0.051700
     39 H93         53.0510    55.2520    20.5390 hc         1 FRC       0.051700
     40 H17         45.7120    55.1540    15.0710 ha         1 FRC       0.128000
     41 H15         48.4210    52.8510    18.5280 ha         1 FRC       0.152000
     42 H6          47.7880    51.6770    16.4670 ha         1 FRC       0.135000
     43 H7          45.6700    57.1990    16.4820 ha         1 FRC       0.133000
     44 H16         46.3180    58.3680    18.5370 ha         1 FRC       0.143000
     45 H10         48.3610    54.8470    19.9170 ha         1 FRC       0.140000
     46 H11         46.4320    52.8220    14.7330 ha         1 FRC       0.130000
@<TRIPOS>BOND
     1     1     2 1   
     2     1     5 2   
     3     1    26 1   
     4     2     3 1   
     5     2     9 1   
     6     3     4 2   
     7     3    27 1   
     8     4     5 1   
     9     5     6 1   
    10     6     7 2   
    11     6     8 1   
    12     8    28 1   
    13     8    29 1   
    14     9    10 1   
    15     9    12 1   
    16     9    30 1   
    17    10    11 1   
    18    10    14 1   
    19    10    31 1   
    20    11    32 1   
    21    12    13 1   
    22    12    33 1   
    23    12    34 1   
    24    13    15 1   
    25    13    35 1   
    26    13    36 1   
    27    14    37 1   
    28    14    38 1   
    29    14    39 1   
    30    15    24 1   
    31    16    17 ar  
    32    16    21 ar  
    33    16    46 1   
    34    17    18 ar  
    35    17    40 1   
    36    18    19 ar  
    37    18    22 ar  
    38    19    20 ar  
    39    19    25 ar  
    40    20    21 ar  
    41    20    41 1   
    42    21    42 1   
    43    22    23 ar  
    44    22    43 1   
    45    23    24 ar  
    46    23    44 1   
    47    24    25 ar  
    48    25    45 1   
@<TRIPOS>SUBSTRUCTURE
     1 FRC         1 TEMP              0 ****  ****    0 ROOT
