@<TRIPOS>MOLECULE
FRC
   46    48     1     0     0
SMALL
No Charge or Current Charge


@<TRIPOS>ATOM
      1 C1          50.6360    54.0210    21.4020 cc         1 FRC      -0.162000
      2 N2          50.8500    55.0150    22.3390 na         1 FRC      -0.162500
      3 C3          50.9560    54.4010    23.5690 cc         1 FRC       0.413400
      4 N4          50.7890    53.0900    23.4620 nd         1 FRC      -0.675000
      5 C5          50.5910    52.8410    22.1060 cd         1 FRC       0.163500
      6 C8          50.3580    51.5190    21.4170 c          1 FRC       0.546600
      7 O9          50.1890    51.3700    20.2150 o          1 FRC      -0.633100
      8 N10         50.3420    50.4430    22.2380 nt         1 FRC      -0.592000
      9 C13         50.9650    56.4720    22.0920 c3         1 FRC       0.089300
     10 C14         52.4150    56.9130    21.7120 c3         1 FRC       0.164300
     11 O15         53.3140    56.6020    22.7840 oh         1 FRC      -0.660000
     12 C18         49.8900    56.9960    21.1000 c3         1 FRC      -0.127400
     13 C2          48.4400    56.7930    21.6020 c3         1 FRC       0.162600
     14 C9          52.9680    56.2860    20.4130 c3         1 FRC      -0.136100
     15 O1          47.5310    57.2970    20.6020 os         1 FRC      -0.344100
     16 C11         46.8400    53.4970    15.4460 ca         1 FRC      -0.116000
     17 C17         46.4420    54.8250    15.6840 ca         1 FRC      -0.094000
     18 C12         46.7190    55.4330    16.9230 ca         1 FRC      -0.066000
     19 C4          47.3970    54.7070    17.9270 ca         1 FRC      -0.002000
     20 C15         47.7920    53.3780    17.6840 ca         1 FRC      -0.106000
     21 C6          47.5140    52.7750    16.4450 ca         1 FRC      -0.097000
     22 C7          46.3210    56.7600    17.1680 ca         1 FRC      -0.068000
     23 C16         46.6020    57.3600    18.4070 ca         1 FRC      -0.130000
     24 C19         47.2840    56.6480    19.4070 ca         1 FRC       0.132100
     25 C10         47.6740    55.3120    19.1670 ca         1 FRC      -0.199000
     26 H1          50.5370    54.2070    20.3400 h4         1 FRC       0.174000
     27 H3          51.1390    54.9560    24.4830 h5         1 FRC       0.061100
     28 H101        50.1920    49.5220    21.8550 hn         1 FRC       0.323000
     29 H102        50.4820    50.5790    23.2290 hn         1 FRC       0.323000
     30 H13         50.7520    56.9650    23.0500 h1         1 FRC       0.076700
     31 H14         52.3970    58.0020    21.5680 h1         1 FRC       0.037700
     32 HO          54.1970    56.9520    22.5320 ho         1 FRC       0.455000
     33 H181        50.0180    56.5130    20.1250 hc         1 FRC       0.069200
     34 H182        50.0490    58.0690    20.9380 hc         1 FRC       0.069200
     35 H21         48.3120    57.3580    22.5350 h1         1 FRC       0.061200
     36 H22         48.2390    55.7400    21.8330 h1         1 FRC       0.061200
     37 H91         52.3180    56.5120    19.5590 hc         1 FRC       0.051700
     38 H92         53.9630    56.6870    20.1850 hc         1 FRC       0.051700
     39 H93         53.0550    55.1970    20.5020 hc         1 FRC       0.051700
     40 H17         45.9200    55.3770    14.9050 ha         1 FRC       0.110000
     41 H15         48.3140    52.8120    18.4530 ha         1 FRC       0.134000
     42 H6          47.8210    51.7470    16.2600 ha         1 FRC       0.117000
     43 H7          45.7950    57.3260    16.4020 ha         1 FRC       0.115000
     44 H16         46.2940    58.3860    18.5920 ha         1 FRC       0.125000
     45 H10         48.1830    54.7320    19.9280 ha         1 FRC       0.122000
     46 H11         46.6250    53.0290    14.4880 ha         1 FRC       0.112000
@<TRIPOS>BOND
     1     1     2 1   
     2     1     5 2   
     3     1    26 1   
     4     2     3 1   
     5     2     9 1   
     6     3     4 2   
     7     3    27 1   
     8     4     5 1   
     9     5     6 1   
    10     6     7 2   
    11     6     8 1   
    12     8    28 1   
    13     8    29 1   
    14     9    10 1   
    15     9    12 1   
    16     9    30 1   
    17    10    11 1   
    18    10    14 1   
    19    10    31 1   
    20    11    32 1   
    21    12    13 1   
    22    12    33 1   
    23    12    34 1   
    24    13    15 1   
    25    13    35 1   
    26    13    36 1   
    27    14    37 1   
    28    14    38 1   
    29    14    39 1   
    30    15    24 1   
    31    16    17 ar  
    32    16    21 ar  
    33    16    46 1   
    34    17    18 ar  
    35    17    40 1   
    36    18    19 ar  
    37    18    22 ar  
    38    19    20 ar  
    39    19    25 ar  
    40    20    21 ar  
    41    20    41 1   
    42    21    42 1   
    43    22    23 ar  
    44    22    43 1   
    45    23    24 ar  
    46    23    44 1   
    47    24    25 ar  
    48    25    45 1   
@<TRIPOS>SUBSTRUCTURE
     1 FRC         1 TEMP              0 ****  ****    0 ROOT
