@<TRIPOS>MOLECULE
FRD
   23    23     1     0     0
SMALL
No Charge or Current Charge


@<TRIPOS>ATOM
      1 N            1.0330     1.0610     1.9550 n8         1 FRD      -0.883800
      2 CA          -0.2450     0.3470     2.1080 c3         1 FRD       0.163500
      3 C           -0.4460    -0.0690     3.5790 c3         1 FRD      -0.086100
      4 CB          -0.3160    -0.8570     1.1370 c3         1 FRD      -0.074100
      5 CG          -0.1540    -0.4640    -0.3300 ca         1 FRD      -0.083300
      6 CD1          1.0110    -0.8160    -1.0410 ca         1 FRD      -0.129000
      7 CD2         -1.1750     0.2500    -0.9890 ca         1 FRD      -0.129000
      8 CE1          1.1550    -0.4530    -2.3920 ca         1 FRD      -0.125000
      9 CE2         -1.0310     0.6120    -2.3390 ca         1 FRD      -0.125000
     10 CZ           0.1350     0.2620    -3.0410 ca         1 FRD      -0.129000
     11 H            1.7950     0.4310     2.2190 hn         1 FRD       0.339300
     12 H2           1.1840     1.2250     0.9540 hn         1 FRD       0.339300
     13 HA          -1.0510     1.0460     1.8400 h1         1 FRD       0.059700
     14 HC1         -0.4150     0.8070     4.2380 hc         1 FRD       0.037700
     15 HC2         -1.4210    -0.5550     3.7100 hc         1 FRD       0.037700
     16 HC3          0.3320    -0.7720     3.9010 hc         1 FRD       0.037700
     17 HB2          0.4450    -1.5950     1.4220 hc         1 FRD       0.050700
     18 HB3         -1.2820    -1.3580     1.2700 hc         1 FRD       0.050700
     19 HD1          1.8080    -1.3690    -0.5480 ha         1 FRD       0.128000
     20 HD2         -2.0820     0.5230    -0.4530 ha         1 FRD       0.128000
     21 HE1          2.0580    -0.7260    -2.9350 ha         1 FRD       0.131000
     22 HE2         -1.8230     1.1650    -2.8420 ha         1 FRD       0.131000
     23 HZ           0.2460     0.5430    -4.0870 ha         1 FRD       0.131000
@<TRIPOS>BOND
     1     1     2 1   
     2     1    11 1   
     3     1    12 1   
     4     2     3 1   
     5     2     4 1   
     6     2    13 1   
     7     3    14 1   
     8     3    15 1   
     9     3    16 1   
    10     4     5 1   
    11     4    17 1   
    12     4    18 1   
    13     5     6 ar  
    14     5     7 ar  
    15     6     8 ar  
    16     6    19 1   
    17     7     9 ar  
    18     7    20 1   
    19     8    10 ar  
    20     8    21 1   
    21     9    10 ar  
    22     9    22 1   
    23    10    23 1   
@<TRIPOS>SUBSTRUCTURE
     1 FRD         1 TEMP              0 ****  ****    0 ROOT
