@<TRIPOS>MOLECULE
FRD
   23    23     1     0     0
SMALL
bcc


@<TRIPOS>ATOM
      1 N            1.1690     0.9430     1.9590 n8         1 FRD      -0.883800
      2 CA          -0.1580     0.3580     2.0710 c3         1 FRD       0.163500
      3 C           -0.4140    -0.0510     3.5140 c3         1 FRD      -0.086100
      4 CB          -0.4080    -0.8370     1.1290 c3         1 FRD      -0.074100
      5 CG          -0.2240    -0.4820    -0.3180 ca         1 FRD      -0.083300
      6 CD1          0.9890    -0.7050    -0.9680 ca         1 FRD      -0.129000
      7 CD2         -1.2530     0.1290    -1.0330 ca         1 FRD      -0.129000
      8 CE1          1.1690    -0.3340    -2.2940 ca         1 FRD      -0.125000
      9 CE2         -1.0780     0.5050    -2.3580 ca         1 FRD      -0.125000
     10 CZ           0.1350     0.2740    -2.9940 ca         1 FRD      -0.129000
     11 H            1.8690     0.2310     2.1390 hn         1 FRD       0.339300
     12 H2           1.3320     1.2520     1.0080 hn         1 FRD       0.339300
     13 HA          -0.8760     1.1430     1.8080 h1         1 FRD       0.059700
     14 HC1         -0.2820     0.7940     4.1890 hc         1 FRD       0.037700
     15 HC2         -1.4290    -0.4310     3.6400 hc         1 FRD       0.037700
     16 HC3          0.2740    -0.8410     3.8250 hc         1 FRD       0.037700
     17 HB2          0.2740    -1.6470     1.4060 hc         1 FRD       0.050700
     18 HB3         -1.4230    -1.2070     1.2940 hc         1 FRD       0.050700
     19 HD1          1.8010    -1.1840    -0.4320 ha         1 FRD       0.128000
     20 HD2         -2.2050     0.3100    -0.5470 ha         1 FRD       0.128000
     21 HE1          2.1180    -0.5210    -2.7800 ha         1 FRD       0.131000
     22 HE2         -1.8920     0.9760    -2.8950 ha         1 FRD       0.131000
     23 HZ           0.2740     0.5640    -4.0280 ha         1 FRD       0.131000
@<TRIPOS>BOND
     1     1     2 1   
     2     1    11 1   
     3     1    12 1   
     4     2     3 1   
     5     2     4 1   
     6     2    13 1   
     7     3    14 1   
     8     3    15 1   
     9     3    16 1   
    10     4     5 1   
    11     4    17 1   
    12     4    18 1   
    13     5     6 ar  
    14     5     7 ar  
    15     6     8 ar  
    16     6    19 1   
    17     7     9 ar  
    18     7    20 1   
    19     8    10 ar  
    20     8    21 1   
    21     9    10 ar  
    22     9    22 1   
    23    10    23 1   
@<TRIPOS>SUBSTRUCTURE
     1 FRD         1 TEMP              0 ****  ****    0 ROOT
