@<TRIPOS>MOLECULE
FRG
   63    65     1     0     0
SMALL
bcc


@<TRIPOS>ATOM
      1 N33          0.3380    -1.6320    -1.9030 n2         1 FRG      -0.883100
      2 C31         -0.1910    -2.3040    -0.9490 c2         1 FRG       0.786100
      3 N32         -1.1750    -3.2680    -1.1100 nv         1 FRG      -0.942800
      4 N29          0.2160    -2.1240     0.3520 nh         1 FRG      -0.743600
      5 C30          1.2030    -1.1030     0.6330 c6         1 FRG       0.215800
      6 C28          0.2870    -3.2370     1.2840 c6         1 FRG       0.213800
      7 C27          1.6660    -3.8890     1.2480 c6         1 FRG      -0.106400
      8 C26          2.7550    -2.8570     1.5220 c6         1 FRG      -0.072400
      9 C24          2.6340    -1.6430     0.6000 c6         1 FRG      -0.087700
     10 C23          3.6370    -0.5650     1.0210 c3         1 FRG      -0.148400
     11 C22          3.6090     0.6270     0.0950 c          1 FRG       0.678100
     12 O25          3.9990     0.5640    -1.0620 o          1 FRG      -0.589100
     13 N21          3.0880     1.7510     0.6250 ns         1 FRG      -0.562900
     14 C16          2.8920     2.9570    -0.1210 c3         1 FRG       0.057700
     15 C17          4.0930     3.8830     0.0170 c          1 FRG       0.620100
     16 O19          5.0610     3.6520     0.6930 o          1 FRG      -0.523000
     17 O18          3.9360     4.9760    -0.7100 os         1 FRG      -0.422900
     18 C20          4.9810     5.9510    -0.6780 c3         1 FRG       0.128700
     19 C15          1.5870     3.6550     0.3080 c3         1 FRG      -0.038100
     20 C12          0.4200     2.7130     0.2270 ca         1 FRG      -0.074300
     21 C13         -0.2010     2.2380     1.3780 ca         1 FRG      -0.126500
     22 C14         -1.2400     1.3250     1.3040 ca         1 FRG      -0.093000
     23 C11         -0.0390     2.2620    -1.0090 ca         1 FRG      -0.126500
     24 C10         -1.0670     1.3420    -1.0960 ca         1 FRG      -0.093000
     25 C9          -1.6780     0.8560     0.0640 ca         1 FRG       0.026000
     26 C8          -2.7090    -0.1160    -0.0250 cg         1 FRG      -0.081000
     27 C7          -3.5740    -0.9540    -0.1170 ch         1 FRG      -0.131000
     28 C4          -4.5720    -1.9590    -0.2480 ca         1 FRG       0.026000
     29 C5          -4.7850    -2.5800    -1.4840 ca         1 FRG      -0.113000
     30 C6          -5.7500    -3.5660    -1.6130 ca         1 FRG      -0.127500
     31 C3          -5.3450    -2.3460     0.8530 ca         1 FRG      -0.113000
     32 C2          -6.3090    -3.3320     0.7150 ca         1 FRG      -0.127500
     33 C1          -6.5150    -3.9440    -0.5160 ca         1 FRG      -0.119000
     34 H33         -0.1780    -1.7770    -2.7640 hn         1 FRG       0.372400
     35 H321        -1.8850    -3.2850    -0.3940 hn         1 FRG       0.392300
     36 H322        -1.5920    -3.2730    -2.0270 hn         1 FRG       0.392300
     37 H301         0.9900    -0.7060     1.6330 h1         1 FRG       0.060700
     38 H302         1.0740    -0.2880    -0.0750 h1         1 FRG       0.060700
     39 H281        -0.4870    -3.9710     1.0760 h1         1 FRG       0.051700
     40 H282         0.0890    -2.8510     2.2890 h1         1 FRG       0.051700
     41 H271         1.8190    -4.3470     0.2660 hc         1 FRG       0.050700
     42 H272         1.7120    -4.6940     1.9850 hc         1 FRG       0.050700
     43 H261         3.7450    -3.3080     1.4210 hc         1 FRG       0.038700
     44 H262         2.6700    -2.5180     2.5620 hc         1 FRG       0.038700
     45 H24          2.8550    -1.9520    -0.4270 hc         1 FRG       0.089700
     46 H231         4.6470    -0.9840     1.0060 hc         1 FRG       0.059700
     47 H232         3.4320    -0.2640     2.0520 hc         1 FRG       0.059700
     48 H21          2.8330     1.7530     1.6000 hn         1 FRG       0.318500
     49 H16          2.8100     2.6930    -1.1790 h1         1 FRG       0.109700
     50 H201         5.1490     6.3190     0.3330 h1         1 FRG       0.049033
     51 H202         5.9110     5.5460    -1.0750 h1         1 FRG       0.049033
     52 H203         4.6440     6.7690    -1.3080 h1         1 FRG       0.049033
     53 H151         1.6920     4.0360     1.3280 hc         1 FRG       0.063700
     54 H152         1.4210     4.5170    -0.3390 hc         1 FRG       0.063700
     55 H13          0.1370     2.5770     2.3500 ha         1 FRG       0.134000
     56 H14         -1.7020     0.9560     2.2110 ha         1 FRG       0.139000
     57 H11          0.4210     2.6250    -1.9210 ha         1 FRG       0.134000
     58 H10         -1.3940     0.9850    -2.0620 ha         1 FRG       0.139000
     59 H5          -4.1910    -2.2850    -2.3390 ha         1 FRG       0.136000
     60 H6          -5.9050    -4.0400    -2.5730 ha         1 FRG       0.135000
     61 H3          -5.1860    -1.8700     1.8120 ha         1 FRG       0.136000
     62 H2          -6.9030    -3.6220     1.5710 ha         1 FRG       0.135000
     63 H1          -7.2690    -4.7130    -0.6180 ha         1 FRG       0.134000
@<TRIPOS>BOND
     1     1     2 2   
     2     1    34 1   
     3     2     3 1   
     4     2     4 1   
     5     3    35 1   
     6     3    36 1   
     7     4     5 1   
     8     4     6 1   
     9     5     9 1   
    10     5    37 1   
    11     5    38 1   
    12     6     7 1   
    13     6    39 1   
    14     6    40 1   
    15     7     8 1   
    16     7    41 1   
    17     7    42 1   
    18     8     9 1   
    19     8    43 1   
    20     8    44 1   
    21     9    10 1   
    22     9    45 1   
    23    10    11 1   
    24    10    46 1   
    25    10    47 1   
    26    11    12 2   
    27    11    13 1   
    28    13    14 1   
    29    13    48 1   
    30    14    15 1   
    31    14    19 1   
    32    14    49 1   
    33    15    16 2   
    34    15    17 1   
    35    17    18 1   
    36    18    50 1   
    37    18    51 1   
    38    18    52 1   
    39    19    20 1   
    40    19    53 1   
    41    19    54 1   
    42    20    21 ar  
    43    20    23 ar  
    44    21    22 ar  
    45    21    55 1   
    46    22    25 ar  
    47    22    56 1   
    48    23    24 ar  
    49    23    57 1   
    50    24    25 ar  
    51    24    58 1   
    52    25    26 1   
    53    26    27 3   
    54    27    28 1   
    55    28    29 ar  
    56    28    31 ar  
    57    29    30 ar  
    58    29    59 1   
    59    30    33 ar  
    60    30    60 1   
    61    31    32 ar  
    62    31    61 1   
    63    32    33 ar  
    64    32    62 1   
    65    33    63 1   
@<TRIPOS>SUBSTRUCTURE
     1 FRG         1 TEMP              0 ****  ****    0 ROOT
