@<TRIPOS>MOLECULE
FRG
   63    65     1     0     0
SMALL
No Charge or Current Charge


@<TRIPOS>ATOM
      1 N33          1.1710    -2.4890    -2.1060 n2         1 FRG      -0.883100
      2 C31          0.1860    -2.5550    -1.3370 c2         1 FRG       0.786100
      3 N32         -1.0360    -2.8090    -1.7540 nv         1 FRG      -1.053200
      4 N29          0.2060    -2.1650    -0.0420 nh         1 FRG      -0.743600
      5 C30          1.1200    -1.0800     0.4090 c6         1 FRG       0.215800
      6 C28         -0.0270    -3.1700     1.0250 c6         1 FRG       0.213800
      7 C27          1.3120    -3.8230     1.4470 c6         1 FRG      -0.106400
      8 C26          2.3240    -2.7520     1.9240 c6         1 FRG      -0.072400
      9 C24          2.5070    -1.6410     0.8520 c6         1 FRG      -0.087700
     10 C23          3.4700    -0.5200     1.3590 c3         1 FRG      -0.148400
     11 C22          3.6230     0.6420     0.3700 c          1 FRG       0.611100
     12 O25          4.2210     0.5340    -0.6900 o          1 FRG      -0.589100
     13 N21          3.0500     1.8260     0.7720 ns         1 FRG      -0.495900
     14 C16          2.9350     3.0350    -0.0770 c3         1 FRG       0.057700
     15 C17          4.1110     4.0180     0.1680 c          1 FRG       0.571100
     16 O19          4.8820     3.9540     1.1190 o          1 FRG      -0.474000
     17 O18          4.2050     4.9490    -0.8360 os         1 FRG      -0.446100
     18 C20          5.2590     5.9270    -0.7580 c3         1 FRG       0.151900
     19 C15          1.5600     3.7230     0.1130 c3         1 FRG      -0.038100
     20 C12          0.3950     2.7390     0.0470 ca         1 FRG      -0.074300
     21 C13         -0.3040     2.3850     1.2180 ca         1 FRG      -0.108500
     22 C14         -1.3460     1.4440     1.1650 ca         1 FRG      -0.075000
     23 C11          0.0290     2.1530    -1.1800 ca         1 FRG      -0.108500
     24 C10         -1.0140     1.2120    -1.2330 ca         1 FRG      -0.075000
     25 C9          -1.6990     0.8490    -0.0590 ca         1 FRG       0.026000
     26 C8          -2.7260    -0.1500    -0.1020 cg         1 FRG      -0.081000
     27 C7          -3.5750    -1.0250    -0.1310 ch         1 FRG      -0.131000
     28 C4          -4.5430    -2.0700    -0.1590 ca         1 FRG       0.026000
     29 C5          -5.7250    -1.9200    -0.9070 ca         1 FRG      -0.095000
     30 C6          -6.6780    -2.9550    -0.9360 ca         1 FRG      -0.109500
     31 C3          -4.3170    -3.2590     0.5600 ca         1 FRG      -0.095000
     32 C2          -5.2700    -4.2930     0.5310 ca         1 FRG      -0.109500
     33 C1          -6.4500    -4.1410    -0.2170 ca         1 FRG      -0.101000
     34 H33          0.8530    -2.8000    -3.0280 hn         1 FRG       0.372400
     35 H321        -1.6840    -2.4750    -1.0560 hn         1 FRG       0.447500
     36 H322        -1.2200    -2.4540    -2.6790 hn         1 FRG       0.447500
     37 H301         0.6690    -0.5590     1.2670 h1         1 FRG       0.060700
     38 H302         1.2420    -0.3300    -0.3860 h1         1 FRG       0.060700
     39 H281        -0.7360    -3.9440     0.6960 h1         1 FRG       0.051700
     40 H282        -0.4720    -2.6810     1.9040 h1         1 FRG       0.051700
     41 H271         1.7320    -4.3840     0.6010 hc         1 FRG       0.050700
     42 H272         1.1330    -4.5520     2.2490 hc         1 FRG       0.050700
     43 H261         3.2900    -3.2250     2.1480 hc         1 FRG       0.038700
     44 H262         1.9670    -2.3080     2.8640 hc         1 FRG       0.038700
     45 H24          2.9890    -2.0860    -0.0290 hc         1 FRG       0.089700
     46 H231         4.4630    -0.9550     1.5230 hc         1 FRG       0.059700
     47 H232         3.0970    -0.1320     2.3150 hc         1 FRG       0.059700
     48 H21          2.6030     1.8320     1.6810 hn         1 FRG       0.318500
     49 H16          3.0090     2.7310    -1.1290 h1         1 FRG       0.109700
     50 H201         5.1660     6.5300     0.1550 h1         1 FRG       0.049033
     51 H202         6.2440     5.4430    -0.7560 h1         1 FRG       0.049033
     52 H203         5.2150     6.6060    -1.6190 h1         1 FRG       0.049033
     53 H151         1.5560     4.2460     1.0770 hc         1 FRG       0.063700
     54 H152         1.4370     4.5000    -0.6520 hc         1 FRG       0.063700
     55 H13         -0.0330     2.8270     2.1740 ha         1 FRG       0.116000
     56 H14         -1.8690     1.1660     2.0780 ha         1 FRG       0.121000
     57 H11          0.5610     2.4160    -2.0910 ha         1 FRG       0.116000
     58 H10         -1.2770     0.7520    -2.1830 ha         1 FRG       0.121000
     59 H5          -5.9070    -1.0050    -1.4660 ha         1 FRG       0.118000
     60 H6          -7.5910    -2.8370    -1.5150 ha         1 FRG       0.117000
     61 H3          -3.4060    -3.3820     1.1420 ha         1 FRG       0.118000
     62 H2          -5.0930    -5.2110     1.0880 ha         1 FRG       0.117000
     63 H1          -7.1870    -4.9410    -0.2390 ha         1 FRG       0.116000
@<TRIPOS>BOND
     1     1     2 2   
     2     1    34 1   
     3     2     3 1   
     4     2     4 1   
     5     3    35 1   
     6     3    36 1   
     7     4     5 1   
     8     4     6 1   
     9     5     9 1   
    10     5    37 1   
    11     5    38 1   
    12     6     7 1   
    13     6    39 1   
    14     6    40 1   
    15     7     8 1   
    16     7    41 1   
    17     7    42 1   
    18     8     9 1   
    19     8    43 1   
    20     8    44 1   
    21     9    10 1   
    22     9    45 1   
    23    10    11 1   
    24    10    46 1   
    25    10    47 1   
    26    11    12 2   
    27    11    13 1   
    28    13    14 1   
    29    13    48 1   
    30    14    15 1   
    31    14    19 1   
    32    14    49 1   
    33    15    16 2   
    34    15    17 1   
    35    17    18 1   
    36    18    50 1   
    37    18    51 1   
    38    18    52 1   
    39    19    20 1   
    40    19    53 1   
    41    19    54 1   
    42    20    21 ar  
    43    20    23 ar  
    44    21    22 ar  
    45    21    55 1   
    46    22    25 ar  
    47    22    56 1   
    48    23    24 ar  
    49    23    57 1   
    50    24    25 ar  
    51    24    58 1   
    52    25    26 1   
    53    26    27 3   
    54    27    28 1   
    55    28    29 ar  
    56    28    31 ar  
    57    29    30 ar  
    58    29    59 1   
    59    30    33 ar  
    60    30    60 1   
    61    31    32 ar  
    62    31    61 1   
    63    32    33 ar  
    64    32    62 1   
    65    33    63 1   
@<TRIPOS>SUBSTRUCTURE
     1 FRG         1 TEMP              0 ****  ****    0 ROOT
