@<TRIPOS>MOLECULE
FRH
   81    84     1     0     0
SMALL
No Charge or Current Charge


@<TRIPOS>ATOM
      1 O45         -0.9880    -0.0850     8.7570 o          1 FRH      -0.614100
      2 C26          0.0880    -0.0560     8.1660 c          1 FRH       0.603100
      3 C25          1.4500    -0.4220     8.8800 c3         1 FRH       0.180500
      4 C32          2.5920    -0.8450     7.9010 c3         1 FRH      -0.073400
      5 C36          3.8700    -1.4420     8.5610 c3         1 FRH      -0.056700
      6 C38          3.5850    -2.7250     9.3790 c3         1 FRH      -0.087600
      7 C37          4.9620    -1.7070     7.4980 c3         1 FRH      -0.087600
      8 N5           1.9270     0.6390     9.8230 nu         1 FRH      -0.894400
      9 C17          2.0730     1.9230     9.5410 c2         1 FRH       0.808100
     10 N4           2.5230     2.4780    10.6340 nv         1 FRH      -1.072200
     11 N1           1.9790     2.4330     8.4100 n2         1 FRH      -0.899100
     12 N2           0.1450     0.2510     6.8180 ns         1 FRH      -0.475900
     13 C28         -1.0330     0.5390     5.9660 c3         1 FRH       0.022000
     14 C14         -1.5730    -0.7240     5.2410 c          1 FRH       0.585100
     15 O44         -1.0210    -1.8130     5.3650 o          1 FRH      -0.602100
     16 N6          -2.7360    -0.5970     4.4400 n          1 FRH      -0.403800
     17 C22         -3.3640     0.7050     4.0800 c6         1 FRH       0.093500
     18 C15         -3.2070     0.9870     2.5670 c6         1 FRH      -0.097900
     19 C19         -3.7790    -0.1810     1.7230 c6         1 FRH       0.011600
     20 C27         -3.1370    -1.5260     2.1620 c6         1 FRH      -0.097900
     21 C29         -3.3080    -1.7430     3.6840 c6         1 FRH       0.093500
     22 C23         -3.5670     0.0950     0.2490 cc         1 FRH      -0.158300
     23 C11         -2.4840    -0.2020    -0.5280 cd         1 FRH      -0.193000
     24 C13         -2.7540     0.2610    -1.8330 cd         1 FRH       0.323500
     25 N7          -3.9550     0.8020    -1.9290 nc         1 FRH      -0.517800
     26 N3          -4.4460     0.7120    -0.6400 na         1 FRH       0.133800
     27 C34         -5.7850     1.2330    -0.3260 c3         1 FRH       0.069900
     28 C24         -1.8860     0.1190    -3.0140 ca         1 FRH      -0.162500
     29 C10         -2.4520    -0.3140    -4.2300 ca         1 FRH      -0.040000
     30 C21         -0.5160     0.4710    -2.9820 ca         1 FRH       0.171000
     31 Cl8          0.2160     1.1250    -1.5080 cl         1 FRH      -0.186000
     32 C16          0.2790     0.3420    -4.1430 ca         1 FRH       0.062000
     33 Cl9          1.9960     0.7750    -4.1020 cl         1 FRH      -0.142000
     34 C30         -0.2910    -0.1220    -5.3460 ca         1 FRH       0.188100
     35 C33         -1.6640    -0.4440    -5.3840 ca         1 FRH      -0.209000
     36 O43          0.5190    -0.2360    -6.4610 os         1 FRH      -0.305100
     37 C35          0.0250    -0.7020    -7.7290 c3         1 FRH       0.152300
     38 C18          1.1710    -0.7110    -8.7060 cc         1 FRH       0.035300
     39 C39          2.2440    -1.5530    -8.8210 cd         1 FRH      -0.164000
     40 O42          1.2290     0.2550    -9.6890 os         1 FRH      -0.193000
     41 C31          2.3710     0.0020   -10.4280 cc         1 FRH       0.137500
     42 C12          3.0100    -1.1020    -9.9160 cd         1 FRH      -0.226000
     43 C20          2.8030     0.8330   -11.6020 c          1 FRH       0.627500
     44 O40          2.1160     1.7920   -11.9350 o          1 FRH      -0.694000
     45 O41          3.8300     0.5330   -12.1980 o          1 FRH      -0.694000
     46 H25          1.1980    -1.3110     9.4710 h1         1 FRH       0.070700
     47 H321         2.8850     0.0210     7.2950 hc         1 FRH       0.054700
     48 H322         2.1900    -1.5900     7.2030 hc         1 FRH       0.054700
     49 H36          4.2780    -0.6940     9.2520 hc         1 FRH       0.062700
     50 H381         4.5170    -3.1420     9.7790 hc         1 FRH       0.030867
     51 H382         2.9290    -2.5160    10.2320 hc         1 FRH       0.030867
     52 H383         3.1090    -3.4910     8.7550 hc         1 FRH       0.030867
     53 H371         4.6260    -2.4550     6.7700 hc         1 FRH       0.030867
     54 H372         5.2070    -0.7860     6.9560 hc         1 FRH       0.030867
     55 H373         5.8810    -2.0750     7.9690 hc         1 FRH       0.030867
     56 HN5          2.5360     0.3520    10.5760 hn         1 FRH       0.480000
     57 HN41         2.6110     3.4810    10.5560 hn         1 FRH       0.452500
     58 HN42         1.9930     2.1860    11.4430 hn         1 FRH       0.452500
     59 HN1          2.2470     3.4180     8.4860 hn         1 FRH       0.377400
     60 HN2          1.0670     0.2840     6.4000 hn         1 FRH       0.321500
     61 H281        -1.8430     0.9640     6.5740 h1         1 FRH       0.073200
     62 H282        -0.7500     1.2750     5.2030 h1         1 FRH       0.073200
     63 H221        -4.4340     0.6610     4.3310 h1         1 FRH       0.056450
     64 H222        -2.9410     1.5410     4.6510 h1         1 FRH       0.056450
     65 H151        -2.1440     1.1330     2.3310 hc         1 FRH       0.058450
     66 H152        -3.7180     1.9240     2.3100 hc         1 FRH       0.058450
     67 H19         -4.8580    -0.2490     1.9250 hc         1 FRH       0.047700
     68 H271        -2.0660    -1.5360     1.9230 hc         1 FRH       0.058450
     69 H272        -3.5940    -2.3600     1.6120 hc         1 FRH       0.058450
     70 H291        -2.8310    -2.6900     3.9750 h1         1 FRH       0.056450
     71 H292        -4.3770    -1.8340     3.9250 h1         1 FRH       0.056450
     72 H11         -1.5790    -0.7060    -0.2110 ha         1 FRH       0.151000
     73 H341        -6.4540     0.3970    -0.0890 h1         1 FRH       0.053033
     74 H342        -5.7210     1.9050     0.5380 h1         1 FRH       0.053033
     75 H343        -6.1860     1.7860    -1.1840 h1         1 FRH       0.053033
     76 H10         -3.5100    -0.5670    -4.2790 ha         1 FRH       0.121000
     77 H33         -2.1370    -0.7930    -6.2970 ha         1 FRH       0.125000
     78 H351        -0.3770    -1.7190    -7.6390 h1         1 FRH       0.040700
     79 H352        -0.7680    -0.0430    -8.1030 h1         1 FRH       0.040700
     80 H39          2.4600    -2.4050    -8.1840 ha         1 FRH       0.111000
     81 H12          3.9310    -1.5380   -10.2890 ha         1 FRH       0.140000
@<TRIPOS>BOND
     1     1     2 2   
     2     2     3 1   
     3     2    12 1   
     4     3     4 1   
     5     3     8 1   
     6     3    46 1   
     7     4     5 1   
     8     4    47 1   
     9     4    48 1   
    10     5     6 1   
    11     5     7 1   
    12     5    49 1   
    13     6    50 1   
    14     6    51 1   
    15     6    52 1   
    16     7    53 1   
    17     7    54 1   
    18     7    55 1   
    19     8     9 1   
    20     8    56 1   
    21     9    10 1   
    22     9    11 2   
    23    10    57 1   
    24    10    58 1   
    25    11    59 1   
    26    12    13 1   
    27    12    60 1   
    28    13    14 1   
    29    13    61 1   
    30    13    62 1   
    31    14    15 2   
    32    14    16 1   
    33    16    17 1   
    34    16    21 1   
    35    17    18 1   
    36    17    63 1   
    37    17    64 1   
    38    18    19 1   
    39    18    65 1   
    40    18    66 1   
    41    19    20 1   
    42    19    22 1   
    43    19    67 1   
    44    20    21 1   
    45    20    68 1   
    46    20    69 1   
    47    21    70 1   
    48    21    71 1   
    49    22    23 2   
    50    22    26 1   
    51    23    24 1   
    52    23    72 1   
    53    24    25 2   
    54    24    28 1   
    55    25    26 1   
    56    26    27 1   
    57    27    73 1   
    58    27    74 1   
    59    27    75 1   
    60    28    29 ar  
    61    28    30 ar  
    62    29    35 ar  
    63    29    76 1   
    64    30    31 1   
    65    30    32 ar  
    66    32    33 1   
    67    32    34 ar  
    68    34    35 ar  
    69    34    36 1   
    70    35    77 1   
    71    36    37 1   
    72    37    38 1   
    73    37    78 1   
    74    37    79 1   
    75    38    39 2   
    76    38    40 1   
    77    39    42 1   
    78    39    80 1   
    79    40    41 1   
    80    41    42 2   
    81    41    43 1   
    82    42    81 1   
    83    43    44 1   
    84    43    45 1   
@<TRIPOS>SUBSTRUCTURE
     1 FRH         1 TEMP              0 ****  ****    0 ROOT
