@<TRIPOS>MOLECULE
FRH
   81    84     1     0     0
SMALL
bcc


@<TRIPOS>ATOM
      1 O45         -0.8870    -0.0440     8.2780 o          1 FRH      -0.614100
      2 C26          0.2160     0.0220     7.7600 c          1 FRH       0.670100
      3 C25          1.4400    -0.6190     8.4250 c3         1 FRH       0.180500
      4 C32          2.8030    -0.1100     7.9440 c3         1 FRH      -0.073400
      5 C36          3.9940    -0.6950     8.7030 c3         1 FRH      -0.056700
      6 C38          4.0370    -2.2170     8.6300 c3         1 FRH      -0.087600
      7 C37          5.2900    -0.0970     8.1640 c3         1 FRH      -0.087600
      8 N5           1.3020    -0.6090     9.8570 nu         1 FRH      -0.839200
      9 C17          1.1440     0.5640    10.5440 c2         1 FRH       0.808100
     10 N4           0.9170     0.3940    11.8920 nv         1 FRH      -0.961800
     11 N1           1.2950     1.6890     9.9470 n2         1 FRH      -0.899100
     12 N2           0.4030     0.5870     6.5530 ns         1 FRH      -0.542900
     13 C28         -0.7100     0.9170     5.7150 c3         1 FRH       0.022000
     14 C14         -1.3730    -0.3440     5.1490 c          1 FRH       0.652100
     15 O44         -0.8840    -1.4420     5.3600 o          1 FRH      -0.602100
     16 N6          -2.5020    -0.1690     4.4300 n          1 FRH      -0.470800
     17 C22         -3.0060     1.1150     3.9760 c6         1 FRH       0.093500
     18 C15         -2.7640     1.2850     2.4810 c6         1 FRH      -0.097900
     19 C19         -3.3790     0.1180     1.6930 c6         1 FRH       0.011600
     20 C27         -2.8830    -1.2170     2.2530 c6         1 FRH      -0.097900
     21 C29         -3.1280    -1.2940     3.7540 c6         1 FRH       0.093500
     22 C23         -3.0980     0.2400     0.2310 cc         1 FRH      -0.107600
     23 C11         -2.0660    -0.2610    -0.5320 cd         1 FRH      -0.276300
     24 C13         -2.3220     0.2010    -1.8360 cd         1 FRH       0.388800
     25 N7          -3.4270     0.9320    -1.8630 nc         1 FRH      -0.517800
     26 N3          -3.8750     0.9520    -0.6140 na         1 FRH       0.112400
     27 C34         -5.1080     1.6380    -0.3050 c3         1 FRH       0.040600
     28 C24         -1.6160    -0.0720    -3.0940 ca         1 FRH      -0.162500
     29 C10         -2.3570    -0.3280    -4.2450 ca         1 FRH      -0.058000
     30 C21         -0.2250    -0.0760    -3.2210 ca         1 FRH       0.079400
     31 CL8          0.7760     0.2930    -1.8690 cl         1 FRH      -0.094400
     32 C16          0.3860    -0.3380    -4.4420 ca         1 FRH      -0.029600
     33 CL9          2.0980    -0.3410    -4.5920 cl         1 FRH      -0.050400
     34 C30         -0.3810    -0.5950    -5.5840 ca         1 FRH       0.188100
     35 C33         -1.7660    -0.5840    -5.4690 ca         1 FRH      -0.227000
     36 O43          0.2970    -0.8370    -6.7110 os         1 FRH      -0.281900
     37 C35         -0.4340    -1.0090    -7.9240 c3         1 FRH       0.129100
     38 C18          0.5400    -1.1410    -9.0270 cc         1 FRH       0.145000
     39 C39          0.8800    -2.1910    -9.8160 cd         1 FRH      -0.247300
     40 O42          1.2570    -0.0540    -9.3690 os         1 FRH      -0.281800
     41 C31          2.0770    -0.3980   -10.3880 cc         1 FRH       0.247200
     42 C12          1.8810    -1.7060   -10.7040 cd         1 FRH      -0.309300
     43 C20          3.0020     0.6400   -10.9560 c          1 FRH       0.838100
     44 O40          2.9620     1.7690   -10.4390 o          1 FRH      -0.799300
     45 O41          3.7160     0.2430   -11.8960 o          1 FRH      -0.799300
     46 H25          1.3660    -1.6720     8.1330 h1         1 FRH       0.070700
     47 H321         2.8350     0.9780     8.0140 hc         1 FRH       0.054700
     48 H322         2.9260    -0.3730     6.8870 hc         1 FRH       0.054700
     49 H36          3.8980    -0.4060     9.7540 hc         1 FRH       0.062700
     50 H381         4.9120    -2.6060     9.1550 hc         1 FRH       0.030867
     51 H382         3.1580    -2.6780     9.0820 hc         1 FRH       0.030867
     52 H383         4.0970    -2.5580     7.5930 hc         1 FRH       0.030867
     53 H371         5.4280    -0.3470     7.1090 hc         1 FRH       0.030867
     54 H372         5.2940     0.9910     8.2490 hc         1 FRH       0.030867
     55 H373         6.1560    -0.4770     8.7090 hc         1 FRH       0.030867
     56 HN5          0.8890    -1.4320    10.2610 hn         1 FRH       0.424800
     57 HN41         0.5180     1.1880    12.3660 hn         1 FRH       0.397300
     58 HN42         0.4990    -0.4740    12.1880 hn         1 FRH       0.397300
     59 HN1          1.1950     2.4570    10.6010 hn         1 FRH       0.377400
     60 HN2          1.3080     0.5350     6.1170 hn         1 FRH       0.321500
     61 H281        -1.4330     1.5140     6.2700 h1         1 FRH       0.073200
     62 H282        -0.3460     1.5410     4.8960 h1         1 FRH       0.073200
     63 H221        -4.0800     1.1560     4.1850 h1         1 FRH       0.056450
     64 H222        -2.5540     1.9340     4.5290 h1         1 FRH       0.056450
     65 H151        -1.6880     1.3350     2.2870 hc         1 FRH       0.058450
     66 H152        -3.1920     2.2360     2.1560 hc         1 FRH       0.058450
     67 H19         -4.4650     0.1520     1.8430 hc         1 FRH       0.047700
     68 H271        -1.8130    -1.3370     2.0590 hc         1 FRH       0.058450
     69 H272        -3.3940    -2.0440     1.7560 hc         1 FRH       0.058450
     70 H291        -2.7450    -2.2240     4.1620 h1         1 FRH       0.056450
     71 H292        -4.2020    -1.2620     3.9600 h1         1 FRH       0.056450
     72 H11         -1.2570    -0.8870    -0.1960 ha         1 FRH       0.169000
     73 H341        -5.9290     0.9320    -0.1770 h1         1 FRH       0.053033
     74 H342        -5.0040     2.2260     0.6040 h1         1 FRH       0.053033
     75 H343        -5.3410     2.3080    -1.1270 h1         1 FRH       0.053033
     76 H10         -3.4360    -0.3380    -4.1750 ha         1 FRH       0.139000
     77 H33         -2.4000    -0.7870    -6.3210 ha         1 FRH       0.143000
     78 H351        -1.0480    -1.9130    -7.8850 h1         1 FRH       0.040700
     79 H352        -1.0980    -0.1530    -8.0850 h1         1 FRH       0.040700
     80 H39          0.4670    -3.1860    -9.7650 ha         1 FRH       0.129000
     81 H12          2.3910    -2.2590   -11.4760 ha         1 FRH       0.158000
@<TRIPOS>BOND
     1     1     2 2   
     2     2     3 1   
     3     2    12 1   
     4     3     4 1   
     5     3     8 1   
     6     3    46 1   
     7     4     5 1   
     8     4    47 1   
     9     4    48 1   
    10     5     6 1   
    11     5     7 1   
    12     5    49 1   
    13     6    50 1   
    14     6    51 1   
    15     6    52 1   
    16     7    53 1   
    17     7    54 1   
    18     7    55 1   
    19     8     9 1   
    20     8    56 1   
    21     9    10 1   
    22     9    11 2   
    23    10    57 1   
    24    10    58 1   
    25    11    59 1   
    26    12    13 1   
    27    12    60 1   
    28    13    14 1   
    29    13    61 1   
    30    13    62 1   
    31    14    15 2   
    32    14    16 1   
    33    16    17 1   
    34    16    21 1   
    35    17    18 1   
    36    17    63 1   
    37    17    64 1   
    38    18    19 1   
    39    18    65 1   
    40    18    66 1   
    41    19    20 1   
    42    19    22 1   
    43    19    67 1   
    44    20    21 1   
    45    20    68 1   
    46    20    69 1   
    47    21    70 1   
    48    21    71 1   
    49    22    23 2   
    50    22    26 1   
    51    23    24 1   
    52    23    72 1   
    53    24    25 2   
    54    24    28 1   
    55    25    26 1   
    56    26    27 1   
    57    27    73 1   
    58    27    74 1   
    59    27    75 1   
    60    28    29 ar  
    61    28    30 ar  
    62    29    35 ar  
    63    29    76 1   
    64    30    31 1   
    65    30    32 ar  
    66    32    33 1   
    67    32    34 ar  
    68    34    35 ar  
    69    34    36 1   
    70    35    77 1   
    71    36    37 1   
    72    37    38 1   
    73    37    78 1   
    74    37    79 1   
    75    38    39 2   
    76    38    40 1   
    77    39    42 1   
    78    39    80 1   
    79    40    41 1   
    80    41    42 2   
    81    41    43 1   
    82    42    81 1   
    83    43    44 1   
    84    43    45 1   
@<TRIPOS>SUBSTRUCTURE
     1 FRH         1 TEMP              0 ****  ****    0 ROOT
