@<TRIPOS>MOLECULE
FRI
   89    92     1     0     0
SMALL
No Charge or Current Charge


@<TRIPOS>ATOM
      1 O47         -0.7910    -1.9510     5.7470 o          1 FRI      -0.600100
      2 C30         -1.3980    -0.8850     5.7200 c          1 FRI       0.585100
      3 C29         -0.8500     0.3710     6.4540 c3         1 FRI       0.023000
      4 N3           0.4090     0.1020     7.1880 ns         1 FRI      -0.479900
      5 C27          0.4810    -0.2770     8.5180 c          1 FRI       0.598100
      6 O46         -0.5380    -0.3950     9.1920 o          1 FRI      -0.596100
      7 C26          1.9120    -0.6000     9.1030 c3         1 FRI       0.171500
      8 C41          3.0210    -0.8040     8.0210 c3         1 FRI      -0.070400
      9 C32          4.3870    -1.3430     8.5420 c3         1 FRI      -0.054700
     10 C37          4.2720    -2.7340     9.2120 c3         1 FRI      -0.088600
     11 C36          5.4350    -1.3710     7.4060 c3         1 FRI      -0.088600
     12 N7           2.3530     0.3820    10.1440 nu         1 FRI      -0.885400
     13 C24          2.4980     1.6860     9.9610 c2         1 FRI       0.795100
     14 N5           2.1520     2.3190     8.9460 n2         1 FRI      -0.894100
     15 N4           2.8530     2.1700    11.1210 nv         1 FRI      -1.061200
     16 N2          -2.6310    -0.7780     5.0300 n          1 FRI      -0.404800
     17 C31         -3.3430     0.5080     4.7860 c6         1 FRI       0.094000
     18 C39         -3.3310     0.8600     3.2790 c6         1 FRI      -0.097400
     19 C19         -3.9260    -0.2970     2.4340 c6         1 FRI       0.006600
     20 C21         -3.1910    -1.6280     2.7540 c6         1 FRI      -0.097400
     21 C43         -3.2180    -1.9170     4.2730 c6         1 FRI       0.094000
     22 C23         -3.8560     0.0510     0.9610 cc         1 FRI      -0.146300
     23 N8          -4.8360     0.6610     0.1800 na         1 FRI       0.138800
     24 C38         -6.1640     1.1030     0.6300 c3         1 FRI       0.067900
     25 N6          -4.4640     0.8280    -1.1410 nc         1 FRI      -0.518800
     26 C13         -2.8330    -0.1600     0.0820 cd         1 FRI      -0.195000
     27 C14         -3.2350     0.3440    -1.1720 cd         1 FRI       0.308500
     28 C11         -2.4680     0.2930    -2.4280 ca         1 FRI      -0.136500
     29 C15         -3.1190    -0.1120    -3.6110 ca         1 FRI      -0.040000
     30 C17         -2.4290    -0.1540    -4.8330 ca         1 FRI      -0.203000
     31 C20         -1.0740     0.2280    -4.8960 ca         1 FRI       0.166100
     32 C33         -0.4210     0.6660    -3.7250 ca         1 FRI       0.065000
     33 C34         -1.1160     0.7070    -2.4960 ca         1 FRI       0.170000
     34 Cl10        -0.2870     1.3300    -1.0610 cl         1 FRI      -0.170000
     35 Cl9          1.2730     1.1760    -3.8110 cl         1 FRI      -0.155000
     36 O45         -0.3600     0.2010    -6.0810 os         1 FRI      -0.325100
     37 C40         -0.9420    -0.2250    -7.3230 c3         1 FRI       0.218900
     38 C22          0.1230    -0.1300    -8.4060 ca         1 FRI      -0.129300
     39 C28          0.2930     1.0630    -9.1330 ca         1 FRI      -0.053500
     40 C25          1.2780     1.1490   -10.1320 ca         1 FRI      -0.157500
     41 C35          2.1090     0.0500   -10.4210 ca         1 FRI      -0.003000
     42 C18          1.9380    -1.1440    -9.6870 ca         1 FRI      -0.157500
     43 C16          0.9520    -1.2310    -8.6880 ca         1 FRI      -0.053500
     44 N1           3.0830     0.2150   -11.4450 ns         1 FRI      -0.150000
     45 C12          4.0300    -0.6450   -11.9850 c          1 FRI       0.609100
     46 O44          4.1980    -1.8080   -11.6370 o          1 FRI      -0.575100
     47 C42          4.8790    -0.0180   -13.0870 c3         1 FRI      -0.183100
     48 H291        -1.6200     0.7320     7.1480 h1         1 FRI       0.071700
     49 H292        -0.6660     1.1500     5.7040 h1         1 FRI       0.071700
     50 HN3          1.2890     0.1990     6.6950 hn         1 FRI       0.318500
     51 H26          1.7720    -1.5720     9.5920 h1         1 FRI       0.070700
     52 H411         3.1960     0.1460     7.5020 hc         1 FRI       0.054200
     53 H412         2.6470    -1.5060     7.2660 hc         1 FRI       0.054200
     54 H32          4.7610    -0.6430     9.3000 hc         1 FRI       0.056700
     55 H371         5.2600    -3.0980     9.5160 hc         1 FRI       0.031533
     56 H372         3.6480    -2.6910    10.1120 hc         1 FRI       0.031533
     57 H373         3.8360    -3.4660     8.5210 hc         1 FRI       0.031533
     58 H361         5.1300    -2.0580     6.6080 hc         1 FRI       0.031533
     59 H362         5.5620    -0.3720     6.9700 hc         1 FRI       0.031533
     60 H363         6.4110    -1.6970     7.7860 hc         1 FRI       0.031533
     61 HN7          2.0760     0.1830    11.0960 hn         1 FRI       0.482000
     62 HN5          2.2780     3.3160     9.1400 hn         1 FRI       0.377400
     63 HN41         3.0950     3.1500    11.0810 hn         1 FRI       0.450000
     64 HN42         3.5620     1.6000    11.5590 hn         1 FRI       0.450000
     65 H311        -4.3830     0.4050     5.1250 h1         1 FRI       0.058700
     66 H312        -2.9060     1.3380     5.3550 h1         1 FRI       0.058700
     67 H391        -2.3000     1.0650     2.9590 hc         1 FRI       0.057200
     68 H392        -3.9020     1.7830     3.1100 hc         1 FRI       0.057200
     69 H19         -4.9790    -0.4230     2.7250 hc         1 FRI       0.051700
     70 H211        -2.1450    -1.5780     2.4240 hc         1 FRI       0.057200
     71 H212        -3.6580    -2.4580     2.2080 hc         1 FRI       0.057200
     72 H431        -2.6770    -2.8510     4.4780 h1         1 FRI       0.058700
     73 H432        -4.2560    -2.0670     4.6010 h1         1 FRI       0.058700
     74 H381        -6.7720     0.2260     0.8840 h1         1 FRI       0.056700
     75 H382        -6.0560     1.7400     1.5150 h1         1 FRI       0.056700
     76 H383        -6.6630     1.6710    -0.1650 h1         1 FRI       0.056700
     77 H13         -1.8820    -0.6330     0.2990 ha         1 FRI       0.153000
     78 H15         -4.1660    -0.4110    -3.5810 ha         1 FRI       0.130000
     79 H17         -2.9670    -0.4860    -5.7170 ha         1 FRI       0.123000
     80 H401        -1.7940     0.4130    -7.5910 h1         1 FRI       0.043200
     81 H402        -1.2980    -1.2610    -7.2490 h1         1 FRI       0.043200
     82 H28         -0.3380     1.9250    -8.9230 ha         1 FRI       0.117000
     83 H25          1.3940     2.0790   -10.6830 ha         1 FRI       0.130500
     84 H18          2.5560    -2.0160    -9.8710 ha         1 FRI       0.130500
     85 H16          0.8350    -2.1570    -8.1290 ha         1 FRI       0.117000
     86 HN1          3.0850     1.1380   -11.8580 hn         1 FRI       0.149000
     87 H421         5.6180    -0.7140   -13.4990 hc         1 FRI       0.064367
     88 H422         4.2170     0.3780   -13.8660 hc         1 FRI       0.064367
     89 H423         5.3510     0.8920   -12.7000 hc         1 FRI       0.064367
@<TRIPOS>BOND
     1     1     2 2   
     2     2     3 1   
     3     2    16 1   
     4     3     4 1   
     5     3    48 1   
     6     3    49 1   
     7     4     5 1   
     8     4    50 1   
     9     5     6 2   
    10     5     7 1   
    11     7     8 1   
    12     7    12 1   
    13     7    51 1   
    14     8     9 1   
    15     8    52 1   
    16     8    53 1   
    17     9    10 1   
    18     9    11 1   
    19     9    54 1   
    20    10    55 1   
    21    10    56 1   
    22    10    57 1   
    23    11    58 1   
    24    11    59 1   
    25    11    60 1   
    26    12    13 1   
    27    12    61 1   
    28    13    14 2   
    29    13    15 1   
    30    14    62 1   
    31    15    63 1   
    32    15    64 1   
    33    16    17 1   
    34    16    21 1   
    35    17    18 1   
    36    17    65 1   
    37    17    66 1   
    38    18    19 1   
    39    18    67 1   
    40    18    68 1   
    41    19    20 1   
    42    19    22 1   
    43    19    69 1   
    44    20    21 1   
    45    20    70 1   
    46    20    71 1   
    47    21    72 1   
    48    21    73 1   
    49    22    23 1   
    50    22    26 2   
    51    23    24 1   
    52    23    25 1   
    53    24    74 1   
    54    24    75 1   
    55    24    76 1   
    56    25    27 2   
    57    26    27 1   
    58    26    77 1   
    59    27    28 1   
    60    28    29 ar  
    61    28    33 ar  
    62    29    30 ar  
    63    29    78 1   
    64    30    31 ar  
    65    30    79 1   
    66    31    32 ar  
    67    31    36 1   
    68    32    33 ar  
    69    32    35 1   
    70    33    34 1   
    71    36    37 1   
    72    37    38 1   
    73    37    80 1   
    74    37    81 1   
    75    38    39 ar  
    76    38    43 ar  
    77    39    40 ar  
    78    39    82 1   
    79    40    41 ar  
    80    40    83 1   
    81    41    42 ar  
    82    41    44 1   
    83    42    43 ar  
    84    42    84 1   
    85    43    85 1   
    86    44    45 1   
    87    44    86 1   
    88    45    46 2   
    89    45    47 1   
    90    47    87 1   
    91    47    88 1   
    92    47    89 1   
@<TRIPOS>SUBSTRUCTURE
     1 FRI         1 TEMP              0 ****  ****    0 ROOT
