@<TRIPOS>MOLECULE
FRI
   89    92     1     0     0
SMALL
abcg2


@<TRIPOS>ATOM
      1 O47         -0.4840    -1.6390     5.6290 o          1 FRI      -0.600100
      2 C30         -1.1180    -0.5970     5.5790 c          1 FRI       0.585100
      3 C29         -0.5800     0.6660     6.2580 c3         1 FRI       0.023000
      4 N3           0.6020     0.3920     7.0180 ns         1 FRI      -0.479900
      5 C27          0.5380    -0.3300     8.1530 c          1 FRI       0.598100
      6 O46         -0.5270    -0.6210     8.6720 o          1 FRI      -0.596100
      7 C26          1.8670    -0.8370     8.7280 c3         1 FRI       0.171500
      8 C41          3.1030    -0.0060     8.3650 c3         1 FRI      -0.070400
      9 C32          4.3970    -0.4820     9.0250 c3         1 FRI      -0.054700
     10 C37          4.7250    -1.9320     8.6870 c3         1 FRI      -0.088600
     11 C36          5.5460     0.4350     8.6170 c3         1 FRI      -0.088600
     12 N7           1.7460    -1.0890    10.1400 nu         1 FRI      -0.885400
     13 C24          1.3820    -0.0890    11.0040 c2         1 FRI       0.795100
     14 N5           1.3380     1.1300    10.6150 n2         1 FRI      -0.894100
     15 N4           1.0630    -0.5510    12.2650 nv         1 FRI      -1.061200
     16 N2          -2.3080    -0.4920     4.9520 n          1 FRI      -0.404800
     17 C31         -2.9980     0.7570     4.6790 c6         1 FRI       0.094000
     18 C39         -2.9010     1.1070     3.1980 c6         1 FRI      -0.097400
     19 C19         -3.4380    -0.0410     2.3300 c6         1 FRI       0.006600
     20 C21         -2.7400    -1.3510     2.7000 c6         1 FRI      -0.097400
     21 C43         -2.8490    -1.6100     4.1970 c6         1 FRI       0.094000
     22 C23         -3.2990     0.2660     0.8750 cc         1 FRI      -0.146300
     23 N8          -4.2120     0.9760     0.1780 na         1 FRI       0.138800
     24 C38         -5.4820     1.4780     0.6510 c3         1 FRI       0.067900
     25 N6          -3.8700     1.1410    -1.0950 nc         1 FRI      -0.518800
     26 C13         -2.2900    -0.0330    -0.0140 cd         1 FRI      -0.195000
     27 C14         -2.6980     0.5390    -1.2320 cd         1 FRI       0.308500
     28 C11         -2.0730     0.4760    -2.5590 ca         1 FRI      -0.136500
     29 C15         -2.8720     0.2400    -3.6750 ca         1 FRI      -0.040000
     30 C17         -2.3560     0.1610    -4.9560 ca         1 FRI      -0.203000
     31 C20         -0.9910     0.3150    -5.1680 ca         1 FRI       0.166100
     32 C33         -0.1690     0.5660    -4.0630 ca         1 FRI       0.065000
     33 C34         -0.7050     0.6500    -2.7840 ca         1 FRI       0.170000
     34 CL10         0.3540     1.0170    -1.4750 cl         1 FRI      -0.170000
     35 CL9          1.5160     0.7760    -4.3330 cl         1 FRI      -0.155000
     36 O45         -0.3830     0.2450    -6.3550 os         1 FRI      -0.325100
     37 C40         -1.1580    -0.0890    -7.5070 c3         1 FRI       0.218900
     38 C22         -0.2120    -0.1880    -8.6610 ca         1 FRI      -0.129300
     39 C28         -0.1300     0.8180    -9.6180 ca         1 FRI      -0.053500
     40 C25          0.7710     0.7300   -10.6640 ca         1 FRI      -0.157500
     41 C35          1.6280    -0.3670   -10.7790 ca         1 FRI      -0.003000
     42 C18          1.5500    -1.3840    -9.8240 ca         1 FRI      -0.157500
     43 C16          0.6380    -1.2810    -8.7860 ca         1 FRI      -0.053500
     44 N1           2.5070    -0.3670   -11.8630 ns         1 FRI      -0.150000
     45 C12          3.5080    -1.2370   -12.1670 c          1 FRI       0.609100
     46 O44          3.7670    -2.2290   -11.5110 o          1 FRI      -0.575100
     47 C42          4.3110    -0.8430   -13.3810 c3         1 FRI      -0.183100
     48 H291        -1.3420     1.1110     6.9000 h1         1 FRI       0.071700
     49 H292        -0.3330     1.4120     5.5010 h1         1 FRI       0.071700
     50 HN3          1.4860     0.5080     6.5530 hn         1 FRI       0.318500
     51 H26          1.9970    -1.8240     8.2680 h1         1 FRI       0.070700
     52 H411         2.9320     1.0380     8.6230 hc         1 FRI       0.054200
     53 H412         3.2520    -0.0550     7.2810 hc         1 FRI       0.054200
     54 H32          4.2720    -0.4020    10.1090 hc         1 FRI       0.056700
     55 H371         5.6700    -2.2330     9.1420 hc         1 FRI       0.031533
     56 H372         3.9610    -2.6220     9.0460 hc         1 FRI       0.031533
     57 H373         4.8200    -2.0700     7.6070 hc         1 FRI       0.031533
     58 H361         5.7130     0.4010     7.5370 hc         1 FRI       0.031533
     59 H362         5.3460     1.4740     8.8880 hc         1 FRI       0.031533
     60 H363         6.4780     0.1400     9.1030 hc         1 FRI       0.031533
     61 HN7          1.4060    -2.0070    10.3780 hn         1 FRI       0.482000
     62 HN5          1.1200     1.7460    11.3890 hn         1 FRI       0.377400
     63 HN41         1.0500     0.1510    12.9870 hn         1 FRI       0.450000
     64 HN42         1.5460    -1.3830    12.5680 hn         1 FRI       0.450000
     65 H311        -4.0480     0.6390     4.9640 h1         1 FRI       0.058700
     66 H312        -2.6020     1.5680     5.2850 h1         1 FRI       0.058700
     67 H391        -1.8590     1.3060     2.9340 hc         1 FRI       0.057200
     68 H392        -3.4620     2.0260     3.0110 hc         1 FRI       0.057200
     69 H19         -4.5040    -0.1650     2.5630 hc         1 FRI       0.051700
     70 H211        -1.6840    -1.3110     2.4180 hc         1 FRI       0.057200
     71 H212        -3.1890    -2.1830     2.1540 hc         1 FRI       0.057200
     72 H431        -2.3300    -2.5230     4.4750 h1         1 FRI       0.058700
     73 H432        -3.9000    -1.7320     4.4770 h1         1 FRI       0.058700
     74 H381        -6.2230     0.6810     0.7080 h1         1 FRI       0.056700
     75 H382        -5.3730     1.9300     1.6340 h1         1 FRI       0.056700
     76 H383        -5.8310     2.2370    -0.0420 h1         1 FRI       0.056700
     77 H13         -1.3970    -0.6000     0.1880 ha         1 FRI       0.153000
     78 H15         -3.9350     0.1030    -3.5320 ha         1 FRI       0.130000
     79 H17         -3.0300    -0.0290    -5.7790 ha         1 FRI       0.123000
     80 H401        -1.9150     0.6790    -7.6910 h1         1 FRI       0.043200
     81 H402        -1.6730    -1.0410    -7.3420 h1         1 FRI       0.043200
     82 H28         -0.7770     1.6840    -9.5530 ha         1 FRI       0.117000
     83 H25          0.8150     1.5270   -11.3970 ha         1 FRI       0.130500
     84 H18          2.1860    -2.2520    -9.8810 ha         1 FRI       0.130500
     85 H16          0.5910    -2.0830    -8.0590 ha         1 FRI       0.117000
     86 HN1          2.4070     0.4190   -12.4860 hn         1 FRI       0.149000
     87 H421         4.6700    -1.7330   -13.8910 hc         1 FRI       0.064367
     88 H422         3.7510    -0.2320   -14.0870 hc         1 FRI       0.064367
     89 H423         5.1820    -0.2680   -13.0610 hc         1 FRI       0.064367
@<TRIPOS>BOND
     1     1     2 2   
     2     2     3 1   
     3     2    16 1   
     4     3     4 1   
     5     3    48 1   
     6     3    49 1   
     7     4     5 1   
     8     4    50 1   
     9     5     6 2   
    10     5     7 1   
    11     7     8 1   
    12     7    12 1   
    13     7    51 1   
    14     8     9 1   
    15     8    52 1   
    16     8    53 1   
    17     9    10 1   
    18     9    11 1   
    19     9    54 1   
    20    10    55 1   
    21    10    56 1   
    22    10    57 1   
    23    11    58 1   
    24    11    59 1   
    25    11    60 1   
    26    12    13 1   
    27    12    61 1   
    28    13    14 2   
    29    13    15 1   
    30    14    62 1   
    31    15    63 1   
    32    15    64 1   
    33    16    17 1   
    34    16    21 1   
    35    17    18 1   
    36    17    65 1   
    37    17    66 1   
    38    18    19 1   
    39    18    67 1   
    40    18    68 1   
    41    19    20 1   
    42    19    22 1   
    43    19    69 1   
    44    20    21 1   
    45    20    70 1   
    46    20    71 1   
    47    21    72 1   
    48    21    73 1   
    49    22    23 1   
    50    22    26 2   
    51    23    24 1   
    52    23    25 1   
    53    24    74 1   
    54    24    75 1   
    55    24    76 1   
    56    25    27 2   
    57    26    27 1   
    58    26    77 1   
    59    27    28 1   
    60    28    29 ar  
    61    28    33 ar  
    62    29    30 ar  
    63    29    78 1   
    64    30    31 ar  
    65    30    79 1   
    66    31    32 ar  
    67    31    36 1   
    68    32    33 ar  
    69    32    35 1   
    70    33    34 1   
    71    36    37 1   
    72    37    38 1   
    73    37    80 1   
    74    37    81 1   
    75    38    39 ar  
    76    38    43 ar  
    77    39    40 ar  
    78    39    82 1   
    79    40    41 ar  
    80    40    83 1   
    81    41    42 ar  
    82    41    44 1   
    83    42    43 ar  
    84    42    84 1   
    85    43    85 1   
    86    44    45 1   
    87    44    86 1   
    88    45    46 2   
    89    45    47 1   
    90    47    87 1   
    91    47    88 1   
    92    47    89 1   
@<TRIPOS>SUBSTRUCTURE
     1 FRI         1 TEMP              0 ****  ****    0 ROOT
