@<TRIPOS>MOLECULE
FRJ
   60    64     1     0     0
SMALL
No Charge or Current Charge


@<TRIPOS>ATOM
      1 O36          3.0990    -0.9360     5.8670 o          1 FRJ      -0.522500
      2 S33          2.5900     0.4180     6.0940 sy         1 FRJ       1.195600
      3 O35          3.4400     1.6040     5.9960 o          1 FRJ      -0.522500
      4 N34          2.1640     0.4320     7.6940 nu         1 FRJ      -0.865000
      5 C37          0.8850     0.2390     8.0560 cc         1 FRJ       0.695300
      6 N38          0.3860    -0.9760     8.0350 nd         1 FRJ      -0.701000
      7 C39         -0.9310    -0.9420     8.4720 cd         1 FRJ       0.316900
      8 C40         -1.3890     0.3040     8.8380 cc         1 FRJ      -0.270000
      9 S41         -0.1480     1.5100     8.6560 ss         1 FRJ      -0.063400
     10 C30          1.0670     0.6840     5.1800 ca         1 FRJ      -0.331500
     11 C31          0.6140     1.9930     4.9270 ca         1 FRJ       0.032500
     12 C32         -0.5890     2.1920     4.2300 ca         1 FRJ      -0.182000
     13 C29          0.3100    -0.4170     4.7360 ca         1 FRJ       0.032500
     14 C28         -0.8920    -0.2040     4.0400 ca         1 FRJ      -0.182000
     15 C27         -1.3430     1.1000     3.7760 ca         1 FRJ       0.359000
     16 N16         -2.5200     1.3530     3.0880 nu         1 FRJ      -0.901100
     17 S15         -3.2350     0.4590     1.8680 sy         1 FRJ       1.175600
     18 O17         -4.1350     1.4390     1.2580 o          1 FRJ      -0.524000
     19 O18         -3.7240    -0.7540     2.5270 o          1 FRJ      -0.524000
     20 C2          -1.8980     0.0780     0.7320 ca         1 FRJ      -0.300500
     21 C1          -1.3730     1.0930    -0.1150 ca         1 FRJ      -0.040000
     22 C3          -1.3490    -1.2280     0.7020 ca         1 FRJ       0.022000
     23 C6          -0.2950    -1.4620    -0.1880 ca         1 FRJ       0.025100
     24 O7           0.3940    -2.6180    -0.3810 os         1 FRJ      -0.157200
     25 C5           0.2060    -0.4900    -1.0190 ca         1 FRJ      -0.025800
     26 C4          -0.3060     0.8150    -0.9970 ca         1 FRJ      -0.082000
     27 C9           1.2960    -1.0810    -1.7820 cc         1 FRJ      -0.261400
     28 C8           1.3360    -2.4050    -1.3570 cd         1 FRJ       0.141900
     29 C13          2.1410    -3.5820    -1.8460 c3         1 FRJ      -0.029200
     30 C14          3.4660    -3.7480    -1.0770 c3         1 FRJ      -0.086100
     31 C10          1.9920    -0.5510    -2.9750 c          1 FRJ       0.630900
     32 O12          3.1380    -0.8800    -3.2510 o          1 FRJ      -0.517100
     33 C11          1.1740     0.2500    -3.9590 ca         1 FRJ      -0.214600
     34 C19         -0.2220     0.0680    -4.0880 ca         1 FRJ       0.014000
     35 C20         -0.9550     0.8260    -5.0160 ca         1 FRJ      -0.115900
     36 Br26        -2.8520     0.5550    -5.1390 br         1 FRJ      -0.067600
     37 C21         -0.3030     1.7630    -5.8400 ca         1 FRJ       0.223100
     38 O25         -1.0180     2.4980    -6.7410 oh         1 FRJ      -0.500100
     39 C22          1.0900     1.9300    -5.7340 ca         1 FRJ      -0.115900
     40 C23          1.8240     1.1740    -4.8040 ca         1 FRJ       0.014000
     41 Br24         2.0200     3.1880    -6.8480 br         1 FRJ      -0.067600
     42 H34          2.5010     1.3360     7.9790 hn         1 FRJ       0.523000
     43 H39         -1.5080    -1.8580     8.5060 h4         1 FRJ       0.047100
     44 H40         -2.3680     0.5790     9.2070 h4         1 FRJ       0.166000
     45 H31          1.1840     2.8570     5.2680 ha         1 FRJ       0.142000
     46 H32         -0.9310     3.2050     4.0400 ha         1 FRJ       0.132500
     47 H29          0.6380    -1.4360     4.9370 ha         1 FRJ       0.142000
     48 H28         -1.4690    -1.0650     3.7240 ha         1 FRJ       0.132500
     49 H16         -2.7130     2.3170     2.8570 hn         1 FRJ       0.507000
     50 H1          -1.7860     2.1010    -0.0840 ha         1 FRJ       0.126000
     51 H3          -1.7170    -2.0280     1.3410 ha         1 FRJ       0.161000
     52 H4           0.1050     1.5950    -1.6340 ha         1 FRJ       0.133000
     53 H131         2.3540    -3.4790    -2.9160 hc         1 FRJ       0.073200
     54 H132         1.5520    -4.5010    -1.7400 hc         1 FRJ       0.073200
     55 H141         4.0230    -4.6140    -1.4540 hc         1 FRJ       0.049367
     56 H142         4.0950    -2.8570    -1.1930 hc         1 FRJ       0.049367
     57 H143         3.2760    -3.8990    -0.0070 hc         1 FRJ       0.049367
     58 H19         -0.7470    -0.6690    -3.4840 ha         1 FRJ       0.146500
     59 H25         -1.9590     2.2320    -6.6620 ho         1 FRJ       0.491000
     60 H23          2.9010     1.3170    -4.7330 ha         1 FRJ       0.146500
@<TRIPOS>BOND
     1     1     2 2   
     2     2     3 2   
     3     2     4 1   
     4     2    10 1   
     5     4     5 1   
     6     4    42 1   
     7     5     6 2   
     8     5     9 1   
     9     6     7 1   
    10     7     8 2   
    11     7    43 1   
    12     8     9 1   
    13     8    44 1   
    14    10    11 ar  
    15    10    13 ar  
    16    11    12 ar  
    17    11    45 1   
    18    12    15 ar  
    19    12    46 1   
    20    13    14 ar  
    21    13    47 1   
    22    14    15 ar  
    23    14    48 1   
    24    15    16 1   
    25    16    17 1   
    26    16    49 1   
    27    17    18 2   
    28    17    19 2   
    29    17    20 1   
    30    20    21 ar  
    31    20    22 ar  
    32    21    26 ar  
    33    21    50 1   
    34    22    23 ar  
    35    22    51 1   
    36    23    24 1   
    37    23    25 ar  
    38    24    28 1   
    39    25    26 ar  
    40    25    27 1   
    41    26    52 1   
    42    27    28 2   
    43    27    31 1   
    44    28    29 1   
    45    29    30 1   
    46    29    53 1   
    47    29    54 1   
    48    30    55 1   
    49    30    56 1   
    50    30    57 1   
    51    31    32 2   
    52    31    33 1   
    53    33    34 ar  
    54    33    40 ar  
    55    34    35 ar  
    56    34    58 1   
    57    35    36 1   
    58    35    37 ar  
    59    37    38 1   
    60    37    39 ar  
    61    38    59 1   
    62    39    40 ar  
    63    39    41 1   
    64    40    60 1   
@<TRIPOS>SUBSTRUCTURE
     1 FRJ         1 TEMP              0 ****  ****    0 ROOT
