@<TRIPOS>MOLECULE
FRJ
   60    64     1     0     0
SMALL
abcg2


@<TRIPOS>ATOM
      1 O36          2.8330    -0.6360     5.5990 o          1 FRJ      -0.522500
      2 S33          2.3910     0.7410     5.5910 sy         1 FRJ       1.195600
      3 O35          3.2650     1.7830     5.0860 o          1 FRJ      -0.522500
      4 N34          2.0910     1.2190     7.1660 nu         1 FRJ      -0.865000
      5 C37          1.2020     0.5790     7.9940 cc         1 FRJ       0.695300
      6 N38          0.6560    -0.5590     7.7310 nd         1 FRJ      -0.701000
      7 C39         -0.1830    -0.9330     8.7470 cd         1 FRJ       0.316900
      8 C40         -0.2730    -0.0770     9.7900 cc         1 FRJ      -0.270000
      9 S41          0.7370     1.2920     9.5040 ss         1 FRJ      -0.063400
     10 C30          0.8350     0.8410     4.7810 ca         1 FRJ      -0.331500
     11 C31          0.3520     2.0890     4.4030 ca         1 FRJ       0.032500
     12 C32         -0.8650     2.1770     3.7600 ca         1 FRJ      -0.182000
     13 C29          0.1020    -0.3080     4.5290 ca         1 FRJ       0.032500
     14 C28         -1.1240    -0.2190     3.8950 ca         1 FRJ      -0.182000
     15 C27         -1.6130     1.0260     3.4980 ca         1 FRJ       0.359000
     16 N16         -2.8410     1.1790     2.8580 nu         1 FRJ      -0.901100
     17 S15         -3.4990     0.0800     1.7930 sy         1 FRJ       1.175600
     18 O17         -4.5600     0.8110     1.1290 o          1 FRJ      -0.524000
     19 O18         -3.8040    -1.1410     2.5140 o          1 FRJ      -0.524000
     20 C2          -2.1970    -0.2610     0.6520 ca         1 FRJ      -0.300500
     21 C1          -1.7680     0.7740    -0.1880 ca         1 FRJ      -0.040000
     22 C3          -1.6220    -1.5220     0.6380 ca         1 FRJ       0.022000
     23 C6          -0.5980    -1.6890    -0.2690 ca         1 FRJ       0.025100
     24 O7           0.1170    -2.8220    -0.4450 os         1 FRJ      -0.157200
     25 C5          -0.1410    -0.6950    -1.1340 ca         1 FRJ      -0.025800
     26 C4          -0.7360     0.5680    -1.0800 ca         1 FRJ      -0.082000
     27 C9           0.9420    -1.3050    -1.8640 cc         1 FRJ      -0.261400
     28 C8           1.0470    -2.5820    -1.3880 cd         1 FRJ       0.141900
     29 C13          1.9660    -3.7000    -1.7030 c3         1 FRJ      -0.029200
     30 C14          3.1150    -3.7940    -0.6950 c3         1 FRJ      -0.086100
     31 C10          1.8390    -0.7120    -2.8640 c          1 FRJ       0.630900
     32 O12          3.0120    -1.0250    -2.9220 o          1 FRJ      -0.517100
     33 C11          1.2760     0.2830    -3.8090 ca         1 FRJ      -0.214600
     34 C19         -0.0470     0.2130    -4.2270 ca         1 FRJ       0.014000
     35 C20         -0.5340     1.1210    -5.1490 ca         1 FRJ      -0.115900
     36 BR26        -2.3270     0.9880    -5.7110 br         1 FRJ      -0.067600
     37 C21          0.2760     2.1370    -5.6710 ca         1 FRJ       0.223100
     38 O25         -0.1230     3.0540    -6.5420 oh         1 FRJ      -0.500100
     39 C22          1.6080     2.1840    -5.2360 ca         1 FRJ      -0.115900
     40 C23          2.1090     1.2680    -4.3360 ca         1 FRJ       0.014000
     41 BR24         2.7240     3.5350    -5.9130 br         1 FRJ      -0.067600
     42 H34          2.3850     2.1620     7.3880 hn         1 FRJ       0.523000
     43 H39         -0.7180    -1.8690     8.6750 h4         1 FRJ       0.047100
     44 H40         -0.8560    -0.1650    10.6920 h4         1 FRJ       0.166000
     45 H31          0.9160     2.9930     4.5910 ha         1 FRJ       0.142000
     46 H32         -1.2350     3.1460     3.4510 ha         1 FRJ       0.132500
     47 H29          0.4690    -1.2780     4.8320 ha         1 FRJ       0.142000
     48 H28         -1.6910    -1.1240     3.7410 ha         1 FRJ       0.132500
     49 H16         -3.1190     2.1330     2.6530 hn         1 FRJ       0.507000
     50 H1          -2.2370     1.7480    -0.1420 ha         1 FRJ       0.126000
     51 H3          -1.9440    -2.3210     1.2920 ha         1 FRJ       0.161000
     52 H4          -0.4060     1.3810    -1.7100 ha         1 FRJ       0.133000
     53 H131         2.3650    -3.5630    -2.7060 hc         1 FRJ       0.073200
     54 H132         1.3970    -4.6320    -1.7080 hc         1 FRJ       0.073200
     55 H141         3.7560    -4.6390    -0.9430 hc         1 FRJ       0.049367
     56 H142         3.7220    -2.8900    -0.7170 hc         1 FRJ       0.049367
     57 H143         2.7470    -3.9380     0.3200 hc         1 FRJ       0.049367
     58 H19         -0.6970    -0.5640    -3.8470 ha         1 FRJ       0.146500
     59 H25         -1.0530     2.9580    -6.7880 ho         1 FRJ       0.491000
     60 H23          3.1420     1.3250    -4.0220 ha         1 FRJ       0.146500
@<TRIPOS>BOND
     1     1     2 2   
     2     2     3 2   
     3     2     4 1   
     4     2    10 1   
     5     4     5 1   
     6     4    42 1   
     7     5     6 2   
     8     5     9 1   
     9     6     7 1   
    10     7     8 2   
    11     7    43 1   
    12     8     9 1   
    13     8    44 1   
    14    10    11 ar  
    15    10    13 ar  
    16    11    12 ar  
    17    11    45 1   
    18    12    15 ar  
    19    12    46 1   
    20    13    14 ar  
    21    13    47 1   
    22    14    15 ar  
    23    14    48 1   
    24    15    16 1   
    25    16    17 1   
    26    16    49 1   
    27    17    18 2   
    28    17    19 2   
    29    17    20 1   
    30    20    21 ar  
    31    20    22 ar  
    32    21    26 ar  
    33    21    50 1   
    34    22    23 ar  
    35    22    51 1   
    36    23    24 1   
    37    23    25 ar  
    38    24    28 1   
    39    25    26 ar  
    40    25    27 1   
    41    26    52 1   
    42    27    28 2   
    43    27    31 1   
    44    28    29 1   
    45    29    30 1   
    46    29    53 1   
    47    29    54 1   
    48    30    55 1   
    49    30    56 1   
    50    30    57 1   
    51    31    32 2   
    52    31    33 1   
    53    33    34 ar  
    54    33    40 ar  
    55    34    35 ar  
    56    34    58 1   
    57    35    36 1   
    58    35    37 ar  
    59    37    38 1   
    60    37    39 ar  
    61    38    59 1   
    62    39    40 ar  
    63    39    41 1   
    64    40    60 1   
@<TRIPOS>SUBSTRUCTURE
     1 FRJ         1 TEMP              0 ****  ****    0 ROOT
