@<TRIPOS>MOLECULE
FRK
   49    51     1     0     0
SMALL
No Charge or Current Charge


@<TRIPOS>ATOM
      1 C1          -0.5560    -0.6490     1.2130 cc         1 FRK       0.583300
      2 S2          -1.9450    -0.3890     0.1940 ss         1 FRK      -0.103400
      3 C3          -0.8460    -0.2670    -1.1410 cc         1 FRK      -0.165000
      4 C4           0.4760    -0.4490    -0.7580 cd         1 FRK       0.388500
      5 N5           0.6170    -0.6780     0.6060 nd         1 FRK      -0.655000
      6 C6          -1.2590     0.1870    -2.4660 ca         1 FRK      -0.052000
      7 N7          -0.7070    -0.8300     2.5670 ns         1 FRK      -0.493400
      8 C8           0.2490    -1.0440     3.5330 c          1 FRK       0.607100
      9 C9          -0.3180    -1.2220     4.9470 c3         1 FRK      -0.160400
     10 O10          1.4490    -1.1180     3.3150 o          1 FRK      -0.516100
     11 C11         -0.0540     0.0230     5.8280 c3         1 FRK      -0.066400
     12 C12         -0.6130    -0.1220     7.2600 c3         1 FRK      -0.077400
     13 C15         -0.3500     1.1190     8.1410 c3         1 FRK      -0.074400
     14 C18         -0.9080     0.9740     9.5700 c3         1 FRK      -0.089100
     15 C21          1.6900    -0.5310    -1.6180 ca         1 FRK      -0.167500
     16 C22          2.9740    -0.4060    -1.0310 ca         1 FRK      -0.039500
     17 C23          4.1400    -0.5120    -1.8100 ca         1 FRK      -0.186000
     18 C24          4.0470    -0.7690    -3.1830 ca         1 FRK       0.148100
     19 C25          2.7900    -0.9360    -3.7740 ca         1 FRK      -0.186000
     20 C26          1.6210    -0.8300    -3.0010 ca         1 FRK      -0.039500
     21 C31         -0.6800     1.3340    -3.0470 ca         1 FRK      -0.053000
     22 C32         -1.0960     1.7720    -4.3170 ca         1 FRK      -0.178000
     23 C33         -2.0990     1.0730    -5.0060 ca         1 FRK       0.146100
     24 C34         -2.6900    -0.0590    -4.4260 ca         1 FRK      -0.178000
     25 C35         -2.2750    -0.4990    -3.1570 ca         1 FRK      -0.053000
     26 O40          5.1720    -0.8760    -3.9440 oh         1 FRK      -0.533100
     27 O41         -2.5080     1.4900    -6.2370 oh         1 FRK      -0.530100
     28 HN7         -1.6540    -0.7990     2.9160 hn         1 FRK       0.326500
     29 H91          0.1720    -2.0850     5.4130 hc         1 FRK       0.058700
     30 H92         -1.4010    -1.3920     4.9040 hc         1 FRK       0.058700
     31 H111        -0.5040     0.9040     5.3520 hc         1 FRK       0.057200
     32 H112         1.0270     0.2070     5.8800 hc         1 FRK       0.057200
     33 H121        -0.1630    -1.0030     7.7350 hc         1 FRK       0.035700
     34 H122        -1.6940    -0.3040     7.2080 hc         1 FRK       0.035700
     35 H151        -0.8010     2.0020     7.6700 hc         1 FRK       0.040200
     36 H152         0.7300     1.3030     8.1970 hc         1 FRK       0.040200
     37 H181        -0.6980     1.8770    10.1550 hc         1 FRK       0.032367
     38 H182        -1.9940     0.8240     9.5490 hc         1 FRK       0.032367
     39 H183        -0.4490     0.1190    10.0810 hc         1 FRK       0.032367
     40 H22          3.0780    -0.2050     0.0330 ha         1 FRK       0.127500
     41 H23          5.1120    -0.3940    -1.3360 ha         1 FRK       0.121000
     42 H25          2.7170    -1.1610    -4.8350 ha         1 FRK       0.121000
     43 H26          0.6710    -1.0180    -3.4900 ha         1 FRK       0.127500
     44 H31          0.0930     1.8850    -2.5140 ha         1 FRK       0.121500
     45 H32         -0.6360     2.6550    -4.7550 ha         1 FRK       0.123500
     46 H34         -3.4700    -0.5970    -4.9580 ha         1 FRK       0.123500
     47 H35         -2.7390    -1.3770    -2.7110 ha         1 FRK       0.121500
     48 H40          5.9510    -0.7370    -3.3640 ho         1 FRK       0.465000
     49 H41         -1.9930     2.2890    -6.4800 ho         1 FRK       0.466000
@<TRIPOS>BOND
     1     1     2 1   
     2     1     5 2   
     3     1     7 1   
     4     2     3 1   
     5     3     4 2   
     6     3     6 1   
     7     4     5 1   
     8     4    15 1   
     9     6    21 ar  
    10     6    25 ar  
    11     7     8 1   
    12     7    28 1   
    13     8     9 1   
    14     8    10 2   
    15     9    11 1   
    16     9    29 1   
    17     9    30 1   
    18    11    12 1   
    19    11    31 1   
    20    11    32 1   
    21    12    13 1   
    22    12    33 1   
    23    12    34 1   
    24    13    14 1   
    25    13    35 1   
    26    13    36 1   
    27    14    37 1   
    28    14    38 1   
    29    14    39 1   
    30    15    16 ar  
    31    15    20 ar  
    32    16    17 ar  
    33    16    40 1   
    34    17    18 ar  
    35    17    41 1   
    36    18    19 ar  
    37    18    26 1   
    38    19    20 ar  
    39    19    42 1   
    40    20    43 1   
    41    21    22 ar  
    42    21    44 1   
    43    22    23 ar  
    44    22    45 1   
    45    23    24 ar  
    46    23    27 1   
    47    24    25 ar  
    48    24    46 1   
    49    25    47 1   
    50    26    48 1   
    51    27    49 1   
@<TRIPOS>SUBSTRUCTURE
     1 FRK         1 TEMP              0 ****  ****    0 ROOT
