@<TRIPOS>MOLECULE
FRK
   49    51     1     0     0
SMALL
abcg2


@<TRIPOS>ATOM
      1 C1          -0.7260     0.0230     1.0920 cc         1 FRK       0.583300
      2 S2          -2.0200     0.0130    -0.0640 ss         1 FRK      -0.103400
      3 C3          -0.8430    -0.0370    -1.3380 cc         1 FRK      -0.165000
      4 C4           0.4080    -0.0730    -0.7880 cd         1 FRK       0.388500
      5 N5           0.4540    -0.0190     0.5820 nd         1 FRK      -0.655000
      6 C6          -1.2790     0.0380    -2.7330 ca         1 FRK      -0.052000
      7 N7          -1.0330     0.0710     2.4320 ns         1 FRK      -0.493400
      8 C8          -0.2000    -0.2430     3.4850 c          1 FRK       0.607100
      9 C9          -0.8830    -0.1090     4.8280 c3         1 FRK      -0.160400
     10 O10          0.9440    -0.6000     3.3390 o          1 FRK      -0.516100
     11 C11          0.0740    -0.1450     6.0080 c3         1 FRK      -0.066400
     12 C12         -0.6610    -0.0170     7.3360 c3         1 FRK      -0.077400
     13 C15          0.2730    -0.0440     8.5390 c3         1 FRK      -0.074400
     14 C18         -0.4680     0.0980     9.8600 c3         1 FRK      -0.089100
     15 C21          1.6820    -0.1540    -1.5160 ca         1 FRK      -0.167500
     16 C22          2.8080     0.5020    -1.0220 ca         1 FRK      -0.039500
     17 C23          4.0220     0.4430    -1.6850 ca         1 FRK      -0.186000
     18 C24          4.1400    -0.2930    -2.8610 ca         1 FRK       0.148100
     19 C25          3.0270    -0.9680    -3.3570 ca         1 FRK      -0.186000
     20 C26          1.8200    -0.8990    -2.6880 ca         1 FRK      -0.039500
     21 C31         -0.7030     0.9530    -3.6120 ca         1 FRK      -0.053000
     22 C32         -1.1130     1.0340    -4.9310 ca         1 FRK      -0.178000
     23 C33         -2.1270     0.2040    -5.4010 ca         1 FRK       0.146100
     24 C34         -2.7220    -0.7070    -4.5320 ca         1 FRK      -0.178000
     25 C35         -2.2960    -0.7860    -3.2190 ca         1 FRK      -0.053000
     26 O40          5.2920    -0.3970    -3.5500 oh         1 FRK      -0.533100
     27 O41         -2.5690     0.2420    -6.6720 oh         1 FRK      -0.530100
     28 HN7         -1.9790     0.3240     2.6690 hn         1 FRK       0.326500
     29 H91         -1.6130    -0.9220     4.9120 hc         1 FRK       0.058700
     30 H92         -1.4670     0.8160     4.8450 hc         1 FRK       0.058700
     31 H111         0.8030     0.6640     5.9150 hc         1 FRK       0.057200
     32 H112         0.6440    -1.0780     5.9940 hc         1 FRK       0.057200
     33 H121        -1.3930    -0.8260     7.4290 hc         1 FRK       0.035700
     34 H122        -1.2370     0.9150     7.3480 hc         1 FRK       0.035700
     35 H151         1.0090     0.7590     8.4430 hc         1 FRK       0.040200
     36 H152         0.8420    -0.9790     8.5340 hc         1 FRK       0.040200
     37 H181         0.2160     0.0710    10.7090 hc         1 FRK       0.032367
     38 H182        -1.0130     1.0420     9.9060 hc         1 FRK       0.032367
     39 H183        -1.1930    -0.7060     9.9950 hc         1 FRK       0.032367
     40 H22          2.7360     1.0730    -0.1070 ha         1 FRK       0.127500
     41 H23          4.8750     0.9750    -1.2790 ha         1 FRK       0.121000
     42 H25          3.1160    -1.5580    -4.2600 ha         1 FRK       0.121000
     43 H26          0.9760    -1.4490    -3.0840 ha         1 FRK       0.127500
     44 H31          0.0780     1.6160    -3.2620 ha         1 FRK       0.121500
     45 H32         -0.6410     1.7550    -5.5880 ha         1 FRK       0.123500
     46 H34         -3.5120    -1.3550    -4.8880 ha         1 FRK       0.123500
     47 H35         -2.7600    -1.5140    -2.5650 ha         1 FRK       0.121500
     48 H40          5.9870     0.1110    -3.1230 ho         1 FRK       0.465000
     49 H41         -2.0970     0.9170    -7.1660 ho         1 FRK       0.466000
@<TRIPOS>BOND
     1     1     2 1   
     2     1     5 2   
     3     1     7 1   
     4     2     3 1   
     5     3     4 2   
     6     3     6 1   
     7     4     5 1   
     8     4    15 1   
     9     6    21 ar  
    10     6    25 ar  
    11     7     8 1   
    12     7    28 1   
    13     8     9 1   
    14     8    10 2   
    15     9    11 1   
    16     9    29 1   
    17     9    30 1   
    18    11    12 1   
    19    11    31 1   
    20    11    32 1   
    21    12    13 1   
    22    12    33 1   
    23    12    34 1   
    24    13    14 1   
    25    13    35 1   
    26    13    36 1   
    27    14    37 1   
    28    14    38 1   
    29    14    39 1   
    30    15    16 ar  
    31    15    20 ar  
    32    16    17 ar  
    33    16    40 1   
    34    17    18 ar  
    35    17    41 1   
    36    18    19 ar  
    37    18    26 1   
    38    19    20 ar  
    39    19    42 1   
    40    20    43 1   
    41    21    22 ar  
    42    21    44 1   
    43    22    23 ar  
    44    22    45 1   
    45    23    24 ar  
    46    23    27 1   
    47    24    25 ar  
    48    24    46 1   
    49    25    47 1   
    50    26    48 1   
    51    27    49 1   
@<TRIPOS>SUBSTRUCTURE
     1 FRK         1 TEMP              0 ****  ****    0 ROOT
