@<TRIPOS>MOLECULE
FRL
   51    54     1     0     0
SMALL
abcg2


@<TRIPOS>ATOM
      1 C1          -4.6890     1.8990    -0.7010 ca         1 FRL      -0.113000
      2 C2          -3.6740     0.9770    -0.5080 ca         1 FRL      -0.061000
      3 C3          -3.9720    -0.3320    -0.1290 ca         1 FRL      -0.121900
      4 C4          -5.3040    -0.7040     0.0570 ca         1 FRL      -0.061000
      5 C5          -6.3220     0.2110    -0.1330 ca         1 FRL      -0.113000
      6 C6          -6.0050     1.5080    -0.5110 ca         1 FRL       0.138000
      7 CL7         -7.2750     2.6560    -0.7500 cl         1 FRL      -0.190000
      8 C8          -2.9250    -1.3180     0.0830 cc         1 FRL       0.590200
      9 N9          -3.0690    -2.5480     0.4360 nd         1 FRL      -0.566100
     10 C10         -1.7830    -3.0460     0.5090 ca         1 FRL       0.061400
     11 C11         -0.8990    -2.0270     0.1750 ca         1 FRL       0.028100
     12 O12         -1.6450    -0.9270    -0.0980 os         1 FRL      -0.284700
     13 C13         -1.2980    -4.3060     0.8450 ca         1 FRL      -0.045000
     14 C14          0.0770    -4.4680     0.8250 ca         1 FRL      -0.122000
     15 C15          0.9400    -3.4180     0.4850 ca         1 FRL      -0.086000
     16 C16          0.4790    -2.1500     0.1440 ca         1 FRL      -0.065300
     17 C17          1.3900    -1.0080    -0.1940 c3         1 FRL      -0.023100
     18 C18          1.4620     0.0150     0.9410 c3         1 FRL      -0.085400
     19 C19          2.3160     1.2320     0.5980 c3         1 FRL       0.048300
     20 C20          2.3810     2.2750     1.7280 c3         1 FRL       0.157300
     21 O21          3.2860     3.3020     1.3960 oh         1 FRL      -0.637000
     22 N22          3.6680     0.8320     0.2280 na         1 FRL      -0.158500
     23 C23          1.0070     2.8210     2.0830 c3         1 FRL      -0.131100
     24 C24          4.5250     0.0930     0.9760 cc         1 FRL       0.394400
     25 N25          5.6840    -0.0430     0.3920 nd         1 FRL      -0.671000
     26 C26          5.5800     0.6430    -0.7850 cd         1 FRL       0.164500
     27 C27          4.3320     1.1970    -0.8960 cc         1 FRL      -0.144000
     28 C28          6.6740     0.7520    -1.7620 c          1 FRL       0.546600
     29 O29          6.5350     1.3800    -2.8070 o          1 FRL      -0.628100
     30 N30          7.8040     0.1200    -1.4160 nt         1 FRL      -0.594000
     31 H1          -4.4510     2.9120    -0.9950 ha         1 FRL       0.135500
     32 H2          -2.6510     1.2930    -0.6610 ha         1 FRL       0.136000
     33 H4          -5.5460    -1.7150     0.3530 ha         1 FRL       0.136000
     34 H5          -7.3520    -0.0840     0.0140 ha         1 FRL       0.135500
     35 H13         -1.9630    -5.1180     1.1090 ha         1 FRL       0.137000
     36 H14          0.5020    -5.4290     1.0810 ha         1 FRL       0.122000
     37 H15          2.0090    -3.5980     0.4860 ha         1 FRL       0.122000
     38 H171         1.0430    -0.5130    -1.1060 hc         1 FRL       0.062200
     39 H172         2.3830    -1.4030    -0.4150 hc         1 FRL       0.062200
     40 H181         1.8300    -0.4640     1.8530 hc         1 FRL       0.058700
     41 H182         0.4560     0.3680     1.1710 hc         1 FRL       0.058700
     42 H19          1.8940     1.7120    -0.2910 h1         1 FRL       0.066700
     43 H20          2.8030     1.7900     2.6130 h1         1 FRL       0.081700
     44 H21          2.8940     3.8480     0.7050 ho         1 FRL       0.442000
     45 H231         0.4960     3.2270     1.2060 hc         1 FRL       0.049033
     46 H232         0.3660     2.0560     2.5190 hc         1 FRL       0.049033
     47 H233         1.1050     3.6190     2.8180 hc         1 FRL       0.049033
     48 H24          4.2530    -0.3250     1.9330 h5         1 FRL       0.055100
     49 H27          3.8760     1.7970    -1.6660 h4         1 FRL       0.170000
     50 H301         7.8740    -0.3710    -0.5400 hn         1 FRL       0.322000
     51 H302         8.6170     0.1600    -2.0080 hn         1 FRL       0.322000
@<TRIPOS>BOND
     1     1     2 ar  
     2     1     6 ar  
     3     1    31 1   
     4     2     3 ar  
     5     2    32 1   
     6     3     4 ar  
     7     3     8 1   
     8     4     5 ar  
     9     4    33 1   
    10     5     6 ar  
    11     5    34 1   
    12     6     7 1   
    13     8     9 2   
    14     8    12 1   
    15     9    10 1   
    16    10    11 ar  
    17    10    13 ar  
    18    11    12 1   
    19    11    16 ar  
    20    13    14 ar  
    21    13    35 1   
    22    14    15 ar  
    23    14    36 1   
    24    15    16 ar  
    25    15    37 1   
    26    16    17 1   
    27    17    18 1   
    28    17    38 1   
    29    17    39 1   
    30    18    19 1   
    31    18    40 1   
    32    18    41 1   
    33    19    20 1   
    34    19    22 1   
    35    19    42 1   
    36    20    21 1   
    37    20    23 1   
    38    20    43 1   
    39    21    44 1   
    40    22    24 1   
    41    22    27 1   
    42    23    45 1   
    43    23    46 1   
    44    23    47 1   
    45    24    25 2   
    46    24    48 1   
    47    25    26 1   
    48    26    27 2   
    49    26    28 1   
    50    27    49 1   
    51    28    29 2   
    52    28    30 1   
    53    30    50 1   
    54    30    51 1   
@<TRIPOS>SUBSTRUCTURE
     1 FRL         1 TEMP              0 ****  ****    0 ROOT
