@<TRIPOS>MOLECULE
FRL
   51    54     1     0     0
SMALL
No Charge or Current Charge


@<TRIPOS>ATOM
      1 C1          -4.7300     1.9070    -0.8650 ca         1 FRL      -0.113000
      2 C2          -3.6890     0.9930    -0.6200 ca         1 FRL      -0.061000
      3 C3          -3.9780    -0.3490    -0.2750 ca         1 FRL      -0.121900
      4 C4          -5.3310    -0.7500    -0.1820 ca         1 FRL      -0.061000
      5 C5          -6.3680     0.1680    -0.4290 ca         1 FRL      -0.113000
      6 C6          -6.0670     1.4940    -0.7700 ca         1 FRL       0.138000
      7 Cl7         -7.3650     2.6400    -1.0780 cl         1 FRL      -0.190000
      8 C8          -2.8960    -1.3110    -0.0140 cc         1 FRL       0.590200
      9 N9          -3.0570    -2.6020     0.3330 nd         1 FRL      -0.566100
     10 C10         -1.7500    -3.0170     0.4550 ca         1 FRL       0.061400
     11 C11         -0.8930    -1.9900     0.1830 ca         1 FRL       0.028100
     12 O12         -1.5830    -0.8650    -0.1270 os         1 FRL      -0.284700
     13 C13         -1.2710    -4.2860     0.8050 ca         1 FRL      -0.045000
     14 C14          0.1270    -4.4750     0.8710 ca         1 FRL      -0.122000
     15 C15          1.0090    -3.4040     0.5890 ca         1 FRL      -0.086000
     16 C16          0.5030    -2.1330     0.2370 ca         1 FRL      -0.065300
     17 C17          1.4330    -0.9650    -0.0660 c3         1 FRL      -0.023100
     18 C18          1.5480     0.0080     1.1330 c3         1 FRL      -0.085400
     19 C19          2.3940     1.2810     0.8460 c3         1 FRL       0.048300
     20 C20          2.4200     2.2790     2.0530 c3         1 FRL       0.157300
     21 O21          3.3050     3.3750     1.7750 oh         1 FRL      -0.637000
     22 N22          3.7550     0.9210     0.3880 na         1 FRL      -0.158500
     23 C23          1.0400     2.8740     2.4090 c3         1 FRL      -0.131100
     24 C24          4.7760     0.4160     1.1680 cc         1 FRL       0.394400
     25 N25          5.8580     0.1820     0.4380 nd         1 FRL      -0.671000
     26 C26          5.5270     0.5560    -0.8630 cd         1 FRL       0.164500
     27 C27          4.2310     1.0150    -0.9030 cc         1 FRL      -0.144000
     28 C28          6.3850     0.5020    -2.1020 c          1 FRL       0.546600
     29 O29          6.0310     0.8470    -3.2210 o          1 FRL      -0.628100
     30 N30          7.6380     0.0270    -1.9090 nt         1 FRL      -0.594000
     31 H1          -4.4990     2.9360    -1.1300 ha         1 FRL       0.135500
     32 H2          -2.6600     1.3370    -0.6990 ha         1 FRL       0.136000
     33 H4          -5.5860    -1.7750     0.0820 ha         1 FRL       0.136000
     34 H5          -7.4050    -0.1500    -0.3550 ha         1 FRL       0.135500
     35 H13         -1.9580    -5.1000     1.0210 ha         1 FRL       0.137000
     36 H14          0.5280    -5.4490     1.1420 ha         1 FRL       0.122000
     37 H15          2.0840    -3.5660     0.6480 ha         1 FRL       0.122000
     38 H171         1.0650    -0.4160    -0.9420 hc         1 FRL       0.062200
     39 H172         2.4270    -1.3410    -0.3350 hc         1 FRL       0.062200
     40 H181         1.9720    -0.5290     1.9900 hc         1 FRL       0.058700
     41 H182         0.5330     0.3040     1.4200 hc         1 FRL       0.058700
     42 H19          1.9080     1.8040     0.0120 h1         1 FRL       0.066700
     43 H20          2.7860     1.7350     2.9350 h1         1 FRL       0.081700
     44 H21          2.9470     3.8490     0.9930 ho         1 FRL       0.442000
     45 H231         0.5700     3.3360     1.5320 hc         1 FRL       0.049033
     46 H232         0.3650     2.1020     2.7960 hc         1 FRL       0.049033
     47 H233         1.1400     3.6380     3.1890 hc         1 FRL       0.049033
     48 H24          4.6660     0.2390     2.2310 h5         1 FRL       0.055100
     49 H27          3.6390     1.3820    -1.7330 h4         1 FRL       0.170000
     50 H301         7.9190    -0.2550    -0.9800 hn         1 FRL       0.322000
     51 H302         8.2750    -0.0410    -2.6880 hn         1 FRL       0.322000
@<TRIPOS>BOND
     1     1     2 ar  
     2     1     6 ar  
     3     1    31 1   
     4     2     3 ar  
     5     2    32 1   
     6     3     4 ar  
     7     3     8 1   
     8     4     5 ar  
     9     4    33 1   
    10     5     6 ar  
    11     5    34 1   
    12     6     7 1   
    13     8     9 2   
    14     8    12 1   
    15     9    10 1   
    16    10    11 ar  
    17    10    13 ar  
    18    11    12 1   
    19    11    16 ar  
    20    13    14 ar  
    21    13    35 1   
    22    14    15 ar  
    23    14    36 1   
    24    15    16 ar  
    25    15    37 1   
    26    16    17 1   
    27    17    18 1   
    28    17    38 1   
    29    17    39 1   
    30    18    19 1   
    31    18    40 1   
    32    18    41 1   
    33    19    20 1   
    34    19    22 1   
    35    19    42 1   
    36    20    21 1   
    37    20    23 1   
    38    20    43 1   
    39    21    44 1   
    40    22    24 1   
    41    22    27 1   
    42    23    45 1   
    43    23    46 1   
    44    23    47 1   
    45    24    25 2   
    46    24    48 1   
    47    25    26 1   
    48    26    27 2   
    49    26    28 1   
    50    27    49 1   
    51    28    29 2   
    52    28    30 1   
    53    30    50 1   
    54    30    51 1   
@<TRIPOS>SUBSTRUCTURE
     1 FRL         1 TEMP              0 ****  ****    0 ROOT
