@<TRIPOS>MOLECULE
FRN
  170   176     1     0     0
SMALL
No Charge or Current Charge


@<TRIPOS>ATOM
      1 N           -4.8440    -7.0400    -0.2750 nz         1 FRN      -0.948000
      2 CA          -4.0350    -6.1150    -1.2040 c3         1 FRN      -0.035700
      3 C           -2.6840    -5.6710    -0.5580 c          1 FRN       0.598100
      4 O           -2.3600    -6.0040     0.5730 o          1 FRN      -0.576100
      5 CB          -4.8870    -4.8950    -1.6610 c3         1 FRN       0.182300
      6 OG1         -5.3370    -4.1890    -0.5010 oh         1 FRN      -0.688000
      7 CG2         -6.1160    -5.3010    -2.4950 c3         1 FRN      -0.116100
      8 N1          -1.8650    -4.8990    -1.3520 ns         1 FRN      -0.465900
      9 C1          -0.5570    -4.3340    -0.9290 c3         1 FRN       0.025700
     10 C11         -0.4610    -2.8750    -1.4640 c          1 FRN       0.611100
     11 O3           0.2030    -2.5570    -2.4390 o          1 FRN      -0.673100
     12 C21          0.6440    -5.2790    -1.2720 c3         1 FRN       0.190300
     13 O12          1.8960    -4.6820    -0.8700 os         1 FRN      -0.450100
     14 C31          0.7840    -5.6550    -2.7640 c3         1 FRN      -0.116100
     15 N2          -1.2570    -1.9110    -0.8820 ns         1 FRN      -0.454900
     16 C2          -2.0350    -1.9950     0.3770 c3         1 FRN       0.058700
     17 C12         -3.4240    -1.3220     0.1250 c          1 FRN       0.603100
     18 O4          -4.2370    -1.8780    -0.6060 o          1 FRN      -0.757100
     19 C22         -1.1920    -1.5130     1.5880 c3         1 FRN      -0.103400
     20 CG          -1.5790    -2.1240     2.9640 c3         1 FRN      -0.045700
     21 CD1         -0.6000    -1.6500     4.0620 c3         1 FRN      -0.097100
     22 CD2         -3.0450    -1.8700     3.3860 c3         1 FRN      -0.097100
     23 N3          -3.7590    -0.1220     0.7370 ns         1 FRN      -0.462900
     24 C3          -5.0640     0.5580     0.4800 c3         1 FRN       0.029700
     25 C13         -5.0360     1.3450    -0.8680 c          1 FRN       0.597100
     26 O5          -6.0410     1.6030    -1.5180 o          1 FRN      -0.627100
     27 C23         -5.5510     1.3900     1.6940 c3         1 FRN      -0.072400
     28 C32         -5.2550     2.9080     1.6340 c3         1 FRN      -0.075400
     29 CD          -5.4840     3.5970     2.9940 c3         1 FRN      -0.111400
     30 CE          -5.1790     5.1090     2.9840 c3         1 FRN       0.117000
     31 NZ          -4.4080     5.5210     4.1590 ns         1 FRN      -0.507900
     32 N4          -3.7750     1.6350    -1.3330 ns         1 FRN      -0.482900
     33 C4          -3.4020     1.9370    -2.7280 c3         1 FRN       0.045700
     34 C14         -2.0700     1.1720    -3.0110 c          1 FRN       0.594100
     35 O6          -1.4690     0.6280    -2.0890 o          1 FRN      -0.621100
     36 C24         -3.3500     3.4660    -2.9890 c3         1 FRN      -0.028100
     37 C33         -2.3750     4.2350    -2.1040 ca         1 FRN      -0.093300
     38 C38         -2.8460     4.9780    -1.0030 ca         1 FRN      -0.095500
     39 C40         -1.0040     4.2720    -2.4260 ca         1 FRN      -0.095500
     40 CE1         -1.9580     5.7580    -0.2430 ca         1 FRN      -0.111500
     41 CE2         -0.1160     5.0460    -1.6610 ca         1 FRN      -0.111500
     42 CZ          -0.5930     5.7920    -0.5700 ca         1 FRN      -0.115000
     43 N5          -1.5310     1.1000    -4.3130 n          1 FRN      -0.394800
     44 C5          -0.3250     0.2590    -4.5650 c5         1 FRN       0.016700
     45 C15          1.0020     0.8220    -3.9540 c          1 FRN       0.624100
     46 O7           1.5300     1.8960    -4.2060 o          1 FRN      -0.593100
     47 C25         -0.2460     0.2140    -6.1250 c5         1 FRN      -0.077400
     48 C34         -1.1320     1.4090    -6.5640 c5         1 FRN      -0.093400
     49 C42         -2.2970     1.3290    -5.5510 c5         1 FRN       0.106000
     50 N6           1.5240    -0.1390    -3.1080 ns         1 FRN      -0.498900
     51 C6           2.7560    -0.1080    -2.2690 c3         1 FRN       0.043700
     52 C16          2.4200    -0.8060    -0.9190 c          1 FRN       0.567100
     53 O8           1.4050    -0.5720    -0.2810 o          1 FRN      -0.573100
     54 C26          3.3820     1.2860    -1.9650 c3         1 FRN       0.159600
     55 OG           2.5150     1.9650    -1.0400 os         1 FRN      -0.416100
     56 N7           3.3600    -1.6890    -0.4310 ns         1 FRN      -0.508900
     57 C7           3.2360    -2.3930     0.8750 c3         1 FRN       0.031700
     58 C17          4.0190    -1.6590     2.0050 c          1 FRN       0.599100
     59 O9           4.2110    -2.1400     3.1130 o          1 FRN      -0.604100
     60 C27          3.5320    -3.9060     0.7200 c3         1 FRN      -0.149400
     61 C35          2.2210    -4.6450     0.4610 c          1 FRN       0.605100
     62 OD1          1.5270    -5.1040     1.3560 o          1 FRN      -0.487000
     63 N8           4.4540    -0.3970     1.6620 ns         1 FRN      -0.480900
     64 C8           5.2220     0.5320     2.5230 c3         1 FRN       0.019700
     65 C18          4.5020     1.9130     2.6130 c          1 FRN       0.612100
     66 O10          5.0570     2.9260     3.0170 o          1 FRN      -0.589100
     67 C28          6.6890     0.6410     2.0260 c3         1 FRN      -0.009200
     68 C36          7.3020    -0.7090     1.7380 cc         1 FRN      -0.142400
     69 C39          7.9500    -1.5500     2.6380 cd         1 FRN      -0.136100
     70 C41          7.1950    -1.4530     0.5130 ca         1 FRN      -0.093800
     71 NE1          8.2300    -2.7910     2.0130 na         1 FRN      -0.219700
     72 C43          7.7340    -2.6900     0.7260 ca         1 FRN      -0.051200
     73 CE3          6.6460    -1.0890    -0.7260 ca         1 FRN      -0.071000
     74 CZ2          7.7380    -3.6680    -0.2780 ca         1 FRN      -0.125000
     75 CZ3          6.6340    -2.0530    -1.7550 ca         1 FRN      -0.165000
     76 CH2          7.1750    -3.3410    -1.5300 ca         1 FRN      -0.105000
     77 N9           3.1960     1.9330     2.1480 ns         1 FRN      -0.472900
     78 C9           2.3050     3.1150     2.1010 c3         1 FRN       0.034700
     79 C19          1.0750     2.8850     3.0420 c          1 FRN       0.587100
     80 O11          1.1060     2.1070     3.9880 o          1 FRN      -0.584100
     81 C29          1.9370     3.5450     0.6430 c3         1 FRN      -0.164400
     82 C37          2.9500     3.0940    -0.4080 c          1 FRN       0.598100
     83 OD2          4.0070     3.6610    -0.6400 o          1 FRN      -0.501000
     84 N10         -0.0610     3.6150     2.7530 ns         1 FRN      -0.462900
     85 C10         -1.3070     3.5930     3.5560 c3         1 FRN      -0.027300
     86 C20         -3.0680     5.2910     4.4030 c          1 FRN       0.627100
     87 O13         -2.6220     5.5370     5.5130 o          1 FRN      -0.607100
     88 C30         -2.1120     2.2650     3.3620 c          1 FRN       0.714000
     89 O1          -2.5810     1.7460     4.3640 o          1 FRN      -0.735000
     90 O2          -2.1930     1.7650     2.2460 o          1 FRN      -0.735000
     91 C44         -2.1410     4.8630     3.2450 c3         1 FRN      -0.150400
     92 HN1A        -5.2740    -6.5070     0.4980 hn         1 FRN       0.517000
     93 HN2A        -5.6220    -7.5350    -0.7360 hn         1 FRN       0.517000
     94 HN3A        -4.2710    -7.7670     0.1830 hn         1 FRN       0.517000
     95 HA          -3.7530    -6.6890    -2.0920 hx         1 FRN       0.103700
     96 HB          -4.2680    -4.2380    -2.2910 h1         1 FRN       0.088700
     97 HG1         -4.9590    -3.2530    -0.5680 ho         1 FRN       0.539000
     98 HG21        -6.6470    -4.4100    -2.8500 hc         1 FRN       0.056367
     99 HG22        -5.8100    -5.8850    -3.3710 hc         1 FRN       0.056367
    100 HG23        -6.8180    -5.9020    -1.9060 hc         1 FRN       0.056367
    101 HN1         -2.1870    -4.7040    -2.2940 hn         1 FRN       0.332500
    102 H1          -0.5660    -4.2440     0.1630 h1         1 FRN       0.108700
    103 H21          0.4890    -6.2220    -0.7300 h1         1 FRN       0.057700
    104 H311         1.0080    -4.7820    -3.3850 hc         1 FRN       0.054700
    105 H312         1.5980    -6.3770    -2.8940 hc         1 FRN       0.054700
    106 H313        -0.1360    -6.1200    -3.1390 hc         1 FRN       0.054700
    107 HN2         -1.1720    -0.9920    -1.3160 hn         1 FRN       0.370500
    108 H4          -2.2800    -3.0460     0.5630 h1         1 FRN       0.060700
    109 H221        -1.1610    -0.4220     1.6290 hc         1 FRN       0.086200
    110 H222        -0.1560    -1.8180     1.4040 hc         1 FRN       0.086200
    111 HG          -1.4590    -3.2110     2.8800 hc         1 FRN       0.013700
    112 HD11        -0.8290    -2.1310     5.0210 hc         1 FRN       0.043533
    113 HD12         0.4340    -1.9040     3.7980 hc         1 FRN       0.043533
    114 HD13        -0.6620    -0.5640     4.1990 hc         1 FRN       0.043533
    115 HD21        -3.2590    -0.7970     3.4420 hc         1 FRN       0.043533
    116 HD22        -3.7480    -2.3330     2.6840 hc         1 FRN       0.043533
    117 HD23        -3.2400    -2.3030     4.3740 hc         1 FRN       0.043533
    118 HN3         -3.0750     0.3310     1.3530 hn         1 FRN       0.423500
    119 H3          -5.8110    -0.2340     0.3380 h1         1 FRN       0.072700
    120 H231        -5.1310     0.9610     2.6120 hc         1 FRN       0.062700
    121 H232        -6.6380     1.2680     1.7780 hc         1 FRN       0.062700
    122 H321        -5.8970     3.3780     0.8780 hc         1 FRN       0.051700
    123 H322        -4.2200     3.0740     1.3150 hc         1 FRN       0.051700
    124 HD1         -4.8620     3.1010     3.7470 hc         1 FRN       0.057200
    125 HD2         -6.5230     3.4480     3.3140 hc         1 FRN       0.057200
    126 HE1A        -6.1270     5.6630     2.9810 h1         1 FRN       0.038700
    127 HE2A        -4.6450     5.3980     2.0700 h1         1 FRN       0.038700
    128 HNZ         -4.9270     5.8780     4.9520 hn         1 FRN       0.299500
    129 HN4         -3.0130     1.3750    -0.7180 hn         1 FRN       0.355500
    130 H5          -4.1570     1.4990    -3.3940 h1         1 FRN       0.079700
    131 H241        -3.1080     3.6660    -4.0360 hc         1 FRN       0.055200
    132 H242        -4.3630     3.8660    -2.8530 hc         1 FRN       0.055200
    133 H38         -3.9040     4.9690    -0.7490 ha         1 FRN       0.118500
    134 H40         -0.6260     3.7180    -3.2830 ha         1 FRN       0.118500
    135 H11         -2.3310     6.3510     0.5890 ha         1 FRN       0.117000
    136 HE2          0.9390     5.0800    -1.9260 ha         1 FRN       0.117000
    137 HZ           0.0910     6.4070     0.0120 ha         1 FRN       0.114000
    138 H12         -0.4900    -0.7560    -4.1810 h1         1 FRN       0.074700
    139 H251        -0.6610    -0.7290    -6.5000 hc         1 FRN       0.053700
    140 H252         0.7790     0.2830    -6.5080 hc         1 FRN       0.053700
    141 H341        -1.4720     1.3260    -7.6020 hc         1 FRN       0.066200
    142 H342        -0.5920     2.3590    -6.4690 hc         1 FRN       0.066200
    143 H421        -2.9640     0.4820    -5.7610 h1         1 FRN       0.049700
    144 H422        -2.8900     2.2490    -5.5490 h1         1 FRN       0.049700
    145 HN6          0.9370    -0.9650    -2.9880 hn         1 FRN       0.349500
    146 H6           3.5110    -0.7160    -2.7830 h1         1 FRN       0.048700
    147 H261         4.3660     1.1270    -1.5060 h1         1 FRN       0.076700
    148 H262         3.5470     1.8680    -2.8790 h1         1 FRN       0.076700
    149 HN7          4.1690    -1.8810    -1.0150 hn         1 FRN       0.322500
    150 H7           2.1950    -2.3040     1.2140 h1         1 FRN       0.100700
    151 H271         3.9750    -4.3020     1.6410 hc         1 FRN       0.106700
    152 H272         4.2120    -4.0430    -0.1280 hc         1 FRN       0.106700
    153 HN8          4.2980    -0.1360     0.6970 hn         1 FRN       0.321500
    154 H8           5.2320     0.1310     3.5440 h1         1 FRN       0.102700
    155 H281         6.7180     1.2570     1.1190 hc         1 FRN       0.070700
    156 H282         7.2870     1.1720     2.7760 hc         1 FRN       0.070700
    157 H39          8.1930    -1.3720     3.6830 h4         1 FRN       0.221000
    158 HE1          8.6820    -3.5980     2.4310 hn         1 FRN       0.352000
    159 HE3          6.2440    -0.0930    -0.8890 ha         1 FRN       0.115000
    160 HZ2          8.1640    -4.6530    -0.0990 ha         1 FRN       0.115000
    161 HZ3          6.2170    -1.8030    -2.7280 ha         1 FRN       0.104000
    162 HH2          7.1650    -4.0800    -2.3290 ha         1 FRN       0.110000
    163 HN9          2.8040     1.0330     1.8930 hn         1 FRN       0.325500
    164 H9           2.8430     3.9610     2.5490 h1         1 FRN       0.103700
    165 H291         1.8480     4.6350     0.6060 hc         1 FRN       0.098700
    166 H292         0.9800     3.0750     0.3810 hc         1 FRN       0.098700
    167 H10         -0.0310     4.2080     1.9330 hn         1 FRN       0.303500
    168 H2          -1.0120     3.6210     4.6130 h1         1 FRN       0.107700
    169 H441        -1.4460     5.6980     3.0960 hc         1 FRN       0.048700
    170 H442        -2.6750     4.7110     2.3060 hc         1 FRN       0.048700
@<TRIPOS>BOND
     1     1     2 1   
     2     1    92 1   
     3     1    93 1   
     4     1    94 1   
     5     2     3 1   
     6     2     5 1   
     7     2    95 1   
     8     3     4 2   
     9     3     8 1   
    10     5     6 1   
    11     5     7 1   
    12     5    96 1   
    13     6    97 1   
    14     7    98 1   
    15     7    99 1   
    16     7   100 1   
    17     8     9 1   
    18     8   101 1   
    19     9    10 1   
    20     9    12 1   
    21     9   102 1   
    22    10    11 2   
    23    10    15 1   
    24    12    13 1   
    25    12    14 1   
    26    12   103 1   
    27    13    61 1   
    28    14   104 1   
    29    14   105 1   
    30    14   106 1   
    31    15    16 1   
    32    15   107 1   
    33    16    17 1   
    34    16    19 1   
    35    16   108 1   
    36    17    18 2   
    37    17    23 1   
    38    19    20 1   
    39    19   109 1   
    40    19   110 1   
    41    20    21 1   
    42    20    22 1   
    43    20   111 1   
    44    21   112 1   
    45    21   113 1   
    46    21   114 1   
    47    22   115 1   
    48    22   116 1   
    49    22   117 1   
    50    23    24 1   
    51    23   118 1   
    52    24    25 1   
    53    24    27 1   
    54    24   119 1   
    55    25    26 2   
    56    25    32 1   
    57    27    28 1   
    58    27   120 1   
    59    27   121 1   
    60    28    29 1   
    61    28   122 1   
    62    28   123 1   
    63    29    30 1   
    64    29   124 1   
    65    29   125 1   
    66    30    31 1   
    67    30   126 1   
    68    30   127 1   
    69    31    86 1   
    70    31   128 1   
    71    32    33 1   
    72    32   129 1   
    73    33    34 1   
    74    33    36 1   
    75    33   130 1   
    76    34    35 2   
    77    34    43 1   
    78    36    37 1   
    79    36   131 1   
    80    36   132 1   
    81    37    38 ar  
    82    37    39 ar  
    83    38    40 ar  
    84    38   133 1   
    85    39    41 ar  
    86    39   134 1   
    87    40    42 ar  
    88    40   135 1   
    89    41    42 ar  
    90    41   136 1   
    91    42   137 1   
    92    43    44 1   
    93    43    49 1   
    94    44    45 1   
    95    44    47 1   
    96    44   138 1   
    97    45    46 2   
    98    45    50 1   
    99    47    48 1   
   100    47   139 1   
   101    47   140 1   
   102    48    49 1   
   103    48   141 1   
   104    48   142 1   
   105    49   143 1   
   106    49   144 1   
   107    50    51 1   
   108    50   145 1   
   109    51    52 1   
   110    51    54 1   
   111    51   146 1   
   112    52    53 2   
   113    52    56 1   
   114    54    55 1   
   115    54   147 1   
   116    54   148 1   
   117    55    82 1   
   118    56    57 1   
   119    56   149 1   
   120    57    58 1   
   121    57    60 1   
   122    57   150 1   
   123    58    59 2   
   124    58    63 1   
   125    60    61 1   
   126    60   151 1   
   127    60   152 1   
   128    61    62 2   
   129    63    64 1   
   130    63   153 1   
   131    64    65 1   
   132    64    67 1   
   133    64   154 1   
   134    65    66 2   
   135    65    77 1   
   136    67    68 1   
   137    67   155 1   
   138    67   156 1   
   139    68    69 2   
   140    68    70 1   
   141    69    71 1   
   142    69   157 1   
   143    70    72 ar  
   144    70    73 ar  
   145    71    72 1   
   146    71   158 1   
   147    72    74 ar  
   148    73    75 ar  
   149    73   159 1   
   150    74    76 ar  
   151    74   160 1   
   152    75    76 ar  
   153    75   161 1   
   154    76   162 1   
   155    77    78 1   
   156    77   163 1   
   157    78    79 1   
   158    78    81 1   
   159    78   164 1   
   160    79    80 2   
   161    79    84 1   
   162    81    82 1   
   163    81   165 1   
   164    81   166 1   
   165    82    83 2   
   166    84    85 1   
   167    84   167 1   
   168    85    88 1   
   169    85    91 1   
   170    85   168 1   
   171    86    87 2   
   172    86    91 1   
   173    88    89 1   
   174    88    90 1   
   175    91   169 1   
   176    91   170 1   
@<TRIPOS>SUBSTRUCTURE
     1 FRN         1 TEMP              0 ****  ****    0 ROOT
