@<TRIPOS>MOLECULE
FRN
  170   176     1     0     0
SMALL
abcg2


@<TRIPOS>ATOM
      1 N           -4.9590    -6.4940    -0.6060 nz         1 FRN      -0.948000
      2 CA          -4.0960    -5.6630    -1.4750 c3         1 FRN      -0.035700
      3 C           -2.8920    -5.2280    -0.6500 c          1 FRN       0.598100
      4 O           -2.9080    -5.2680     0.5660 o          1 FRN      -0.576100
      5 CB          -4.9120    -4.4560    -1.9940 c3         1 FRN       0.182300
      6 OG1         -5.4920    -3.7810    -0.9150 oh         1 FRN      -0.688000
      7 CG2         -5.9940    -4.8970    -2.9650 c3         1 FRN      -0.116100
      8 N1          -1.8550    -4.8070    -1.3920 ns         1 FRN      -0.465900
      9 C1          -0.6530    -4.2390    -0.8320 c3         1 FRN       0.025700
     10 C11         -0.5170    -2.8000    -1.3320 c          1 FRN       0.611100
     11 O3          -0.0560    -2.6160    -2.4590 o          1 FRN      -0.673100
     12 C21          0.5920    -5.0860    -1.1730 c3         1 FRN       0.190300
     13 O12          1.6710    -4.2510    -0.7270 os         1 FRN      -0.450100
     14 C31          0.7530    -5.5260    -2.6150 c3         1 FRN      -0.116100
     15 N2          -0.9010    -1.7900    -0.5550 ns         1 FRN      -0.454900
     16 C2          -1.5790    -1.8020     0.7290 c3         1 FRN       0.058700
     17 C12         -2.9970    -1.2800     0.4450 c          1 FRN       0.603100
     18 O4          -3.6690    -1.9270    -0.3610 o          1 FRN      -0.757100
     19 C22         -0.7190    -1.1450     1.8120 c3         1 FRN      -0.103400
     20 CG          -0.8810    -1.7350     3.2150 c3         1 FRN      -0.045700
     21 CD1          0.1590    -1.1040     4.1370 c3         1 FRN      -0.097100
     22 CD2         -2.2800    -1.5890     3.8060 c3         1 FRN      -0.097100
     23 N3          -3.4630    -0.1720     1.0220 ns         1 FRN      -0.462900
     24 C3          -4.8110     0.2620     0.6860 c3         1 FRN       0.029700
     25 C13         -4.8960     0.8070    -0.7430 c          1 FRN       0.597100
     26 O5          -5.9130     0.6760    -1.4070 o          1 FRN      -0.627100
     27 C23         -5.3870     1.2550     1.7060 c3         1 FRN      -0.072400
     28 C32         -5.0510     2.7290     1.5170 c3         1 FRN      -0.075400
     29 CD          -5.5830     3.5540     2.6840 c3         1 FRN      -0.111400
     30 CE          -5.0760     5.0070     2.6950 c3         1 FRN       0.117000
     31 NZ          -4.4080     5.3800     3.9280 ns         1 FRN      -0.507900
     32 N4          -3.8000     1.4550    -1.1670 ns         1 FRN      -0.482900
     33 C4          -3.5260     1.7800    -2.5420 c3         1 FRN       0.045700
     34 C14         -2.1820     1.1240    -2.8740 c          1 FRN       0.594100
     35 O6          -1.4390     0.7670    -1.9680 o          1 FRN      -0.621100
     36 C24         -3.5700     3.2980    -2.7950 c3         1 FRN      -0.028100
     37 C33         -2.5590     4.1110    -2.0360 ca         1 FRN      -0.093300
     38 C38         -2.9590     4.9180    -0.9750 ca         1 FRN      -0.095500
     39 C40         -1.2150     4.1150    -2.4060 ca         1 FRN      -0.095500
     40 CE1         -2.0460     5.7260    -0.3100 ca         1 FRN      -0.111500
     41 CE2         -0.2980     4.9070    -1.7330 ca         1 FRN      -0.111500
     42 CZ          -0.7090     5.7180    -0.6820 ca         1 FRN      -0.115000
     43 N5          -1.8490     0.9320    -4.1550 n          1 FRN      -0.394800
     44 C5          -0.6910     0.1000    -4.4550 c5         1 FRN       0.016700
     45 C15          0.6040     0.7150    -3.9230 c          1 FRN       0.624100
     46 O7           0.9190     1.8550    -4.2210 o          1 FRN      -0.593100
     47 C25         -0.6890     0.0110    -5.9920 c5         1 FRN      -0.077400
     48 C34         -1.5660     1.1730    -6.4430 c5         1 FRN      -0.093400
     49 C42         -2.6220     1.2420    -5.3510 c5         1 FRN       0.106000
     50 N6           1.3370    -0.1610    -3.2160 ns         1 FRN      -0.498900
     51 C6           2.6240    -0.0010    -2.5800 c3         1 FRN       0.043700
     52 C16          2.5090    -0.6040    -1.1720 c          1 FRN       0.567100
     53 O8           1.6810    -0.2010    -0.3770 o          1 FRN      -0.573100
     54 C26          3.1620     1.4270    -2.4790 c3         1 FRN       0.159600
     55 OG           2.3350     2.2110    -1.6300 os         1 FRN      -0.416100
     56 N7           3.3840    -1.5830    -0.8520 ns         1 FRN      -0.508900
     57 C7           3.2370    -2.3420     0.3730 c3         1 FRN       0.031700
     58 C17          3.8080    -1.6830     1.6320 c          1 FRN       0.599100
     59 O9           3.7330    -2.2680     2.6990 o          1 FRN      -0.604100
     60 C27          3.7800    -3.7570     0.2180 c3         1 FRN      -0.149400
     61 C35          2.8530    -4.7630    -0.4230 c          1 FRN       0.605100
     62 OD1          3.1580    -5.9150    -0.5950 o          1 FRN      -0.487000
     63 N8           4.2700    -0.4330     1.4930 ns         1 FRN      -0.480900
     64 C8           4.8490     0.3400     2.5620 c3         1 FRN       0.019700
     65 C18          4.1650     1.7060     2.6640 c          1 FRN       0.612100
     66 O10          4.7610     2.6780     3.0940 o          1 FRN      -0.589100
     67 C28          6.3720     0.4540     2.3800 c3         1 FRN      -0.009200
     68 C36          6.9730    -0.8990     2.1810 cc         1 FRN      -0.142400
     69 C39          7.4090    -1.7500     3.1570 cd         1 FRN      -0.136100
     70 C41          7.0720    -1.6270     0.9500 ca         1 FRN      -0.093800
     71 NE1          7.7670    -2.9500     2.6120 na         1 FRN      -0.219700
     72 C43          7.5670    -2.9120     1.2640 ca         1 FRN      -0.051200
     73 CE3          6.7930    -1.3220    -0.3890 ca         1 FRN      -0.071000
     74 CZ2          7.7730    -3.8900     0.2920 ca         1 FRN      -0.125000
     75 CZ3          6.9960    -2.2870    -1.3570 ca         1 FRN      -0.165000
     76 CH2          7.4770    -3.5630    -1.0170 ca         1 FRN      -0.105000
     77 N9           2.8840     1.7210     2.2630 ns         1 FRN      -0.472900
     78 C9           2.1580     2.9290     1.9720 c3         1 FRN       0.034700
     79 C19          1.0550     3.1010     3.0280 c          1 FRN       0.587100
     80 O11          1.2830     2.7680     4.1790 o          1 FRN      -0.584100
     81 C29          1.6890     2.9250     0.5140 c3         1 FRN      -0.164400
     82 C37          2.8040     2.5660    -0.4400 c          1 FRN       0.598100
     83 OD2          3.9780     2.5880    -0.1660 o          1 FRN      -0.501000
     84 N10         -0.0950     3.6750     2.6410 ns         1 FRN      -0.462900
     85 C10         -1.2460     3.7040     3.5190 c3         1 FRN      -0.027300
     86 C20         -3.1180     5.2280     4.2780 c          1 FRN       0.627100
     87 O13         -2.7490     5.4090     5.4330 o          1 FRN      -0.607100
     88 C30         -2.1100     2.4270     3.3740 c          1 FRN       0.714000
     89 O1          -2.8840     2.1810     4.3090 o          1 FRN      -0.735000
     90 O2          -1.9720     1.8040     2.2970 o          1 FRN      -0.735000
     91 C44         -2.0960     4.9350     3.2000 c3         1 FRN      -0.150400
     92 HN1A        -5.3650    -5.9360     0.1480 hn         1 FRN       0.517000
     93 HN2A        -5.7300    -6.9070    -1.1310 hn         1 FRN       0.517000
     94 HN3A        -4.4530    -7.2700    -0.1780 hn         1 FRN       0.517000
     95 HA          -3.7790    -6.2880    -2.3110 hx         1 FRN       0.103700
     96 HB          -4.2050    -3.8200    -2.5410 h1         1 FRN       0.088700
     97 HG1         -4.8820    -3.0800    -0.6150 ho         1 FRN       0.539000
     98 HG21        -6.4780    -4.0220    -3.3960 hc         1 FRN       0.056367
     99 HG22        -5.5710    -5.4840    -3.7800 hc         1 FRN       0.056367
    100 HG23        -6.7700    -5.4940    -2.4820 hc         1 FRN       0.056367
    101 HN1         -1.9480    -4.7990    -2.3970 hn         1 FRN       0.332500
    102 H1          -0.7560    -4.2740     0.2510 h1         1 FRN       0.108700
    103 H21          0.5480    -5.9750    -0.5380 h1         1 FRN       0.057700
    104 H311         0.9070    -4.6910    -3.2900 hc         1 FRN       0.054700
    105 H312         1.5910    -6.2150    -2.7040 hc         1 FRN       0.054700
    106 H313        -0.1340    -6.0730    -2.9360 hc         1 FRN       0.054700
    107 HN2         -0.7850    -0.8700    -0.9760 hn         1 FRN       0.370500
    108 H4          -1.7480    -2.8410     1.0190 h1         1 FRN       0.060700
    109 H221        -0.8500    -0.0620     1.8370 hc         1 FRN       0.086200
    110 H222         0.3180    -1.3050     1.5120 hc         1 FRN       0.086200
    111 HG          -0.6590    -2.8080     3.1450 hc         1 FRN       0.013700
    112 HD11         0.0600    -1.4750     5.1590 hc         1 FRN       0.043533
    113 HD12         1.1750    -1.3270     3.8060 hc         1 FRN       0.043533
    114 HD13         0.0490    -0.0180     4.1640 hc         1 FRN       0.043533
    115 HD21        -2.5570    -0.5400     3.9200 hc         1 FRN       0.043533
    116 HD22        -3.0450    -2.0750     3.1980 hc         1 FRN       0.043533
    117 HD23        -2.3190    -2.0550     4.7930 hc         1 FRN       0.043533
    118 HN3         -2.8840     0.4340     1.6290 hn         1 FRN       0.423500
    119 H3          -5.4540    -0.6200     0.6960 h1         1 FRN       0.072700
    120 H231        -5.0490     0.9400     2.6970 hc         1 FRN       0.062700
    121 H232        -6.4730     1.1350     1.6960 hc         1 FRN       0.062700
    122 H321        -5.4750     3.1040     0.5790 hc         1 FRN       0.051700
    123 H322        -3.9720     2.8590     1.4380 hc         1 FRN       0.051700
    124 HD1         -5.2720     3.0770     3.6140 hc         1 FRN       0.057200
    125 HD2         -6.6760     3.5370     2.6760 hc         1 FRN       0.057200
    126 HE1A        -5.9000     5.7060     2.5590 h1         1 FRN       0.038700
    127 HE2A        -4.4020     5.1820     1.8560 h1         1 FRN       0.038700
    128 HNZ         -5.0240     5.5750     4.7050 hn         1 FRN       0.299500
    129 HN4         -2.9930     1.4670    -0.5590 hn         1 FRN       0.355500
    130 H5          -4.3040     1.3250    -3.1600 h1         1 FRN       0.079700
    131 H241        -3.4590     3.4900    -3.8630 hc         1 FRN       0.055200
    132 H242        -4.5780     3.6270    -2.5370 hc         1 FRN       0.055200
    133 H38         -4.0030     4.9320    -0.6830 ha         1 FRN       0.118500
    134 H40         -0.8730     3.5090    -3.2370 ha         1 FRN       0.118500
    135 H11         -2.3840     6.3730     0.4900 ha         1 FRN       0.117000
    136 HE2          0.7410     4.8940    -2.0370 ha         1 FRN       0.117000
    137 HZ           0.0030     6.3530    -0.1680 ha         1 FRN       0.114000
    138 H12         -0.8460    -0.8890    -4.0200 h1         1 FRN       0.074700
    139 H251        -1.1370    -0.9370    -6.2930 hc         1 FRN       0.053700
    140 H252         0.3150     0.0430    -6.4120 hc         1 FRN       0.053700
    141 H341        -2.0030     1.0180    -7.4290 hc         1 FRN       0.066200
    142 H342        -0.9950     2.1020    -6.4640 hc         1 FRN       0.066200
    143 H421        -3.4080     0.4980    -5.5120 h1         1 FRN       0.049700
    144 H422        -3.0880     2.2220    -5.2930 h1         1 FRN       0.049700
    145 HN6          0.8820    -1.0490    -3.0210 hn         1 FRN       0.349500
    146 H6           3.3790    -0.5500    -3.1560 h1         1 FRN       0.048700
    147 H261         4.1830     1.3750    -2.0970 h1         1 FRN       0.076700
    148 H262         3.2010     1.8940    -3.4580 h1         1 FRN       0.076700
    149 HN7          4.0240    -1.9290    -1.5510 hn         1 FRN       0.322500
    150 H7           2.1680    -2.4000     0.5960 h1         1 FRN       0.100700
    151 H271         4.0120    -4.1630     1.2050 hc         1 FRN       0.106700
    152 H272         4.7320    -3.7590    -0.3220 hc         1 FRN       0.106700
    153 HN8          4.4010    -0.0800     0.5580 hn         1 FRN       0.321500
    154 H8           4.6510    -0.1940     3.4950 h1         1 FRN       0.102700
    155 H281         6.5910     1.1020     1.5260 hc         1 FRN       0.070700
    156 H282         6.7980     0.9420     3.2570 hc         1 FRN       0.070700
    157 H39          7.4820    -1.5880     4.2210 h4         1 FRN       0.221000
    158 HE1          8.1250    -3.7340     3.1310 hn         1 FRN       0.352000
    159 HE3          6.4440    -0.3360    -0.6750 ha         1 FRN       0.115000
    160 HZ2          8.1480    -4.8710     0.5550 ha         1 FRN       0.115000
    161 HZ3          6.7880    -2.0580    -2.3950 ha         1 FRN       0.104000
    162 HH2          7.6220    -4.3010    -1.7960 ha         1 FRN       0.110000
    163 HN9          2.4940     0.8630     1.9040 hn         1 FRN       0.325500
    164 H9           2.8440     3.7670     2.1200 h1         1 FRN       0.103700
    165 H291         1.3170     3.9140     0.2350 hc         1 FRN       0.098700
    166 H292         0.8670     2.2220     0.3520 hc         1 FRN       0.098700
    167 H10         -0.3070     3.7090     1.6550 hn         1 FRN       0.303500
    168 H2          -0.8850     3.7850     4.5420 h1         1 FRN       0.107700
    169 H441        -1.4420     5.8110     3.1520 hc         1 FRN       0.048700
    170 H442        -2.5330     4.8270     2.2100 hc         1 FRN       0.048700
@<TRIPOS>BOND
     1     1     2 1   
     2     1    92 1   
     3     1    93 1   
     4     1    94 1   
     5     2     3 1   
     6     2     5 1   
     7     2    95 1   
     8     3     4 2   
     9     3     8 1   
    10     5     6 1   
    11     5     7 1   
    12     5    96 1   
    13     6    97 1   
    14     7    98 1   
    15     7    99 1   
    16     7   100 1   
    17     8     9 1   
    18     8   101 1   
    19     9    10 1   
    20     9    12 1   
    21     9   102 1   
    22    10    11 2   
    23    10    15 1   
    24    12    13 1   
    25    12    14 1   
    26    12   103 1   
    27    13    61 1   
    28    14   104 1   
    29    14   105 1   
    30    14   106 1   
    31    15    16 1   
    32    15   107 1   
    33    16    17 1   
    34    16    19 1   
    35    16   108 1   
    36    17    18 2   
    37    17    23 1   
    38    19    20 1   
    39    19   109 1   
    40    19   110 1   
    41    20    21 1   
    42    20    22 1   
    43    20   111 1   
    44    21   112 1   
    45    21   113 1   
    46    21   114 1   
    47    22   115 1   
    48    22   116 1   
    49    22   117 1   
    50    23    24 1   
    51    23   118 1   
    52    24    25 1   
    53    24    27 1   
    54    24   119 1   
    55    25    26 2   
    56    25    32 1   
    57    27    28 1   
    58    27   120 1   
    59    27   121 1   
    60    28    29 1   
    61    28   122 1   
    62    28   123 1   
    63    29    30 1   
    64    29   124 1   
    65    29   125 1   
    66    30    31 1   
    67    30   126 1   
    68    30   127 1   
    69    31    86 1   
    70    31   128 1   
    71    32    33 1   
    72    32   129 1   
    73    33    34 1   
    74    33    36 1   
    75    33   130 1   
    76    34    35 2   
    77    34    43 1   
    78    36    37 1   
    79    36   131 1   
    80    36   132 1   
    81    37    38 ar  
    82    37    39 ar  
    83    38    40 ar  
    84    38   133 1   
    85    39    41 ar  
    86    39   134 1   
    87    40    42 ar  
    88    40   135 1   
    89    41    42 ar  
    90    41   136 1   
    91    42   137 1   
    92    43    44 1   
    93    43    49 1   
    94    44    45 1   
    95    44    47 1   
    96    44   138 1   
    97    45    46 2   
    98    45    50 1   
    99    47    48 1   
   100    47   139 1   
   101    47   140 1   
   102    48    49 1   
   103    48   141 1   
   104    48   142 1   
   105    49   143 1   
   106    49   144 1   
   107    50    51 1   
   108    50   145 1   
   109    51    52 1   
   110    51    54 1   
   111    51   146 1   
   112    52    53 2   
   113    52    56 1   
   114    54    55 1   
   115    54   147 1   
   116    54   148 1   
   117    55    82 1   
   118    56    57 1   
   119    56   149 1   
   120    57    58 1   
   121    57    60 1   
   122    57   150 1   
   123    58    59 2   
   124    58    63 1   
   125    60    61 1   
   126    60   151 1   
   127    60   152 1   
   128    61    62 2   
   129    63    64 1   
   130    63   153 1   
   131    64    65 1   
   132    64    67 1   
   133    64   154 1   
   134    65    66 2   
   135    65    77 1   
   136    67    68 1   
   137    67   155 1   
   138    67   156 1   
   139    68    69 2   
   140    68    70 1   
   141    69    71 1   
   142    69   157 1   
   143    70    72 ar  
   144    70    73 ar  
   145    71    72 1   
   146    71   158 1   
   147    72    74 ar  
   148    73    75 ar  
   149    73   159 1   
   150    74    76 ar  
   151    74   160 1   
   152    75    76 ar  
   153    75   161 1   
   154    76   162 1   
   155    77    78 1   
   156    77   163 1   
   157    78    79 1   
   158    78    81 1   
   159    78   164 1   
   160    79    80 2   
   161    79    84 1   
   162    81    82 1   
   163    81   165 1   
   164    81   166 1   
   165    82    83 2   
   166    84    85 1   
   167    84   167 1   
   168    85    88 1   
   169    85    91 1   
   170    85   168 1   
   171    86    87 2   
   172    86    91 1   
   173    88    89 1   
   174    88    90 1   
   175    91   169 1   
   176    91   170 1   
@<TRIPOS>SUBSTRUCTURE
     1 FRN         1 TEMP              0 ****  ****    0 ROOT
