@<TRIPOS>MOLECULE
FRP
   82    84     1     0     0
SMALL
bcc


@<TRIPOS>ATOM
      1 C31         -0.3440     2.1200    -3.0960 ca         1 FRP      -0.121500
      2 C30          0.4830     2.8850    -3.9080 ca         1 FRP      -0.125500
      3 C28          0.0910     4.7900    -2.5020 ca         1 FRP      -0.125500
      4 C27         -6.4690    -2.8550     1.5480 ca         1 FRP      -0.143000
      5 C26         -6.2660    -1.5500     1.0930 ca         1 FRP       0.056600
      6 C24         -7.7790    -1.9980    -0.7310 ca         1 FRP      -0.141500
      7 C23         -7.9560    -3.2810    -0.2600 ca         1 FRP       0.108900
      8 C22         -7.3110    -3.7260     0.8780 ca         1 FRP      -0.141500
      9 C16         -1.9890     0.6280     1.1590 c3         1 FRP       0.139500
     10 C20         -5.0190     0.5360     1.6420 c          1 FRP       0.672100
     11 C15         -1.0510     1.3500     0.1660 c3         1 FRP       0.118700
     12 C12          1.2670     0.5430     0.2610 c          1 FRP       0.693700
     13 C13          8.9860    -2.0990     3.6060 c3         1 FRP      -0.089100
     14 C14          8.1970    -0.5460    -2.5600 c3         1 FRP      -0.089100
     15 C11          7.8580    -1.5730     2.7310 c3         1 FRP      -0.096900
     16 C10          7.7530    -1.6140    -1.5710 c3         1 FRP      -0.096900
     17 C9           7.0390    -0.9960    -0.3750 c3         1 FRP       0.098000
     18 C8           7.6290    -2.4700     1.5180 c3         1 FRP       0.098000
     19 C7           5.3130    -2.2460     0.8900 c          1 FRP       0.680700
     20 C4           3.2970    -0.8610     0.4680 ca         1 FRP      -0.040000
     21 C5           2.2550    -0.4120    -0.3350 ca         1 FRP      -0.148600
     22 C6           2.1850    -0.8320    -1.6620 ca         1 FRP      -0.094000
     23 C3           4.2640    -1.7180    -0.0420 ca         1 FRP      -0.149600
     24 C2           4.1800    -2.1410    -1.3650 ca         1 FRP      -0.085000
     25 C1           3.1420    -1.6980    -2.1700 ca         1 FRP      -0.145000
     26 F1          -8.7740    -4.1180    -0.9210 f          1 FRP      -0.143900
     27 C25         -6.9340    -1.1260    -0.0570 ca         1 FRP      -0.143000
     28 N3          -5.3850    -0.7550     1.8370 ns         1 FRP      -0.470100
     29 O3          -5.4400     1.2320     0.7340 o          1 FRP      -0.582100
     30 C19         -4.0260     1.0760     2.6600 c3         1 FRP      -0.138700
     31 C21         -4.7180     2.1260     3.5300 c3         1 FRP      -0.086100
     32 C18         -2.8220     1.6660     1.9270 c3         1 FRP      -0.112400
     33 N4          -1.2370    -0.2660     2.0230 n8         1 FRP      -0.885800
     34 C32         -0.9620     2.6750    -1.9780 ca         1 FRP      -0.073300
     35 C33         -0.7350     4.0210    -1.6940 ca         1 FRP      -0.121500
     36 C29          0.7050     4.2230    -3.6120 ca         1 FRP      -0.126000
     37 N2           0.0380     0.5130    -0.2740 ns         1 FRP      -0.539900
     38 O2           1.5990     1.2970     1.1660 o          1 FRP      -0.613100
     39 O1           4.9650    -2.9120     1.8570 o          1 FRP      -0.593100
     40 N1           6.6010    -1.9670     0.6180 n          1 FRP      -0.469800
     41 H31         -0.5180     1.0790    -3.3400 ha         1 FRP       0.124500
     42 H30          0.9520     2.4350    -4.7740 ha         1 FRP       0.129500
     43 H28          0.2530     5.8340    -2.2660 ha         1 FRP       0.129500
     44 H27         -5.9600    -3.2000     2.4400 ha         1 FRP       0.150500
     45 H24         -8.2920    -1.6660    -1.6240 ha         1 FRP       0.151500
     46 H22         -7.4580    -4.7350     1.2390 ha         1 FRP       0.151500
     47 H16         -2.6600    -0.0070     0.5660 h1         1 FRP       0.059700
     48 H171        -2.2050     0.9700    -1.6120 hc         1 FRP       0.057700
     49 H172        -2.6920     2.4100    -0.7510 hc         1 FRP       0.057700
     50 H15         -0.6060     2.2120     0.6720 h1         1 FRP       0.082700
     51 H131         9.9220    -2.1690     3.0470 hc         1 FRP       0.034533
     52 H132         9.1600    -1.4440     4.4600 hc         1 FRP       0.034533
     53 H133         8.7580    -3.0930     3.9940 hc         1 FRP       0.034533
     54 H141         8.8630     0.1790    -2.0900 hc         1 FRP       0.034533
     55 H142         8.7310    -0.9870    -3.4010 hc         1 FRP       0.034533
     56 H143         7.3420     0.0020    -2.9620 hc         1 FRP       0.034533
     57 H111         8.0950    -0.5600     2.3950 hc         1 FRP       0.046700
     58 H112         6.9360    -1.5060     3.3120 hc         1 FRP       0.046700
     59 H101         7.0920    -2.3280    -2.0680 hc         1 FRP       0.046700
     60 H102         8.6230    -2.1820    -1.2330 hc         1 FRP       0.046700
     61 H91          7.7100    -0.2880     0.1210 h1         1 FRP       0.053450
     62 H92          6.1840    -0.4120    -0.7130 h1         1 FRP       0.053450
     63 H81          7.3640    -3.4780     1.8390 h1         1 FRP       0.053450
     64 H82          8.5570    -2.5570     0.9490 h1         1 FRP       0.053450
     65 H4           3.3570    -0.5330     1.4980 ha         1 FRP       0.163000
     66 H6           1.4030    -0.4710    -2.3170 ha         1 FRP       0.133000
     67 H2           4.9170    -2.8220    -1.7690 ha         1 FRP       0.138000
     68 H1           3.0820    -2.0220    -3.2000 ha         1 FRP       0.135000
     69 H25         -6.8070    -0.1270    -0.4380 ha         1 FRP       0.150500
     70 HN3         -4.9780    -1.2150     2.6360 hn         1 FRP       0.316500
     71 H19         -3.6840     0.2680     3.3140 hc         1 FRP       0.045700
     72 H211        -5.0530     2.9730     2.9310 hc         1 FRP       0.047700
     73 H212        -5.5830     1.7110     4.0480 hc         1 FRP       0.047700
     74 H213        -4.0280     2.5010     4.2860 hc         1 FRP       0.047700
     75 H181        -2.1690     2.1550     2.6570 hc         1 FRP       0.062700
     76 H182        -3.1830     2.4580     1.2660 hc         1 FRP       0.062700
     77 HN41        -0.6810     0.2720     2.6780 hn         1 FRP       0.344800
     78 HN42        -1.8730    -0.8200     2.5830 hn         1 FRP       0.344800
     79 H33         -1.2110     4.4710    -0.8310 ha         1 FRP       0.124500
     80 H29          1.3490     4.8220    -4.2430 ha         1 FRP       0.130000
     81 HN2         -0.1960    -0.2450    -0.8940 hn         1 FRP       0.314500
     82 C17         -1.8190     1.8400    -1.0710 c3         1 FRP      -0.046100
@<TRIPOS>BOND
     1     1     2 ar  
     2     1    34 ar  
     3     1    41 1   
     4     2    36 ar  
     5     2    42 1   
     6     3    35 ar  
     7     3    36 ar  
     8     3    43 1   
     9     4     5 ar  
    10     4     8 ar  
    11     4    44 1   
    12     5    27 ar  
    13     5    28 1   
    14     6     7 ar  
    15     6    27 ar  
    16     6    45 1   
    17     7     8 ar  
    18     7    26 1   
    19     8    46 1   
    20     9    11 1   
    21     9    32 1   
    22     9    33 1   
    23     9    47 1   
    24    10    28 1   
    25    10    29 2   
    26    10    30 1   
    27    11    37 1   
    28    11    50 1   
    29    11    82 1   
    30    12    21 1   
    31    12    37 1   
    32    12    38 2   
    33    13    15 1   
    34    13    51 1   
    35    13    52 1   
    36    13    53 1   
    37    14    16 1   
    38    14    54 1   
    39    14    55 1   
    40    14    56 1   
    41    15    18 1   
    42    15    57 1   
    43    15    58 1   
    44    16    17 1   
    45    16    59 1   
    46    16    60 1   
    47    17    40 1   
    48    17    61 1   
    49    17    62 1   
    50    18    40 1   
    51    18    63 1   
    52    18    64 1   
    53    19    23 1   
    54    19    39 2   
    55    19    40 1   
    56    20    21 ar  
    57    20    23 ar  
    58    20    65 1   
    59    21    22 ar  
    60    22    25 ar  
    61    22    66 1   
    62    23    24 ar  
    63    24    25 ar  
    64    24    67 1   
    65    25    68 1   
    66    27    69 1   
    67    28    70 1   
    68    30    31 1   
    69    30    32 1   
    70    30    71 1   
    71    31    72 1   
    72    31    73 1   
    73    31    74 1   
    74    32    75 1   
    75    32    76 1   
    76    33    77 1   
    77    33    78 1   
    78    34    35 ar  
    79    34    82 1   
    80    35    79 1   
    81    36    80 1   
    82    37    81 1   
    83    48    82 1   
    84    49    82 1   
@<TRIPOS>SUBSTRUCTURE
     1 FRP         1 TEMP              0 ****  ****    0 ROOT
