@<TRIPOS>MOLECULE
FRP
   82    84     1     0     0
SMALL
No Charge or Current Charge


@<TRIPOS>ATOM
      1 C31         -0.2870     3.0650    -2.9800 ca         1 FRP      -0.103500
      2 C30          0.8360     3.5490    -3.6730 ca         1 FRP      -0.107500
      3 C28          1.4340     4.9150    -1.7510 ca         1 FRP      -0.107500
      4 C27         -5.3530    -3.2970     2.1470 ca         1 FRP      -0.125000
      5 C26         -5.7390    -2.2110     1.3360 ca         1 FRP      -0.036000
      6 C24         -6.8060    -3.7830    -0.2060 ca         1 FRP      -0.123500
      7 C23         -6.4100    -4.8540     0.6080 ca         1 FRP       0.144000
      8 C22         -5.6850    -4.6150     1.7840 ca         1 FRP      -0.123500
      9 C16         -2.5790     1.3060     0.9550 c3         1 FRP       0.139500
     10 C20         -5.4840     0.3450     1.1750 c          1 FRP       0.605100
     11 C15         -1.3670     2.0630     0.3020 c3         1 FRP       0.118700
     12 C12          0.7270     0.6770     0.6540 c          1 FRP       0.626700
     13 C13          9.0860    -3.4720     2.8110 c3         1 FRP      -0.089100
     14 C14          8.3840    -0.5480    -2.4230 c3         1 FRP      -0.089100
     15 C11          8.1800    -2.4730     2.0650 c3         1 FRP      -0.096900
     16 C10          7.8900    -1.6710    -1.4900 c3         1 FRP      -0.096900
     17 C9           6.8620    -1.1740    -0.4480 c3         1 FRP       0.098000
     18 C8           7.2010    -3.1660     1.0890 c3         1 FRP       0.098000
     19 C7           4.9780    -2.0270     0.9730 c          1 FRP       0.613700
     20 C4           2.8530    -0.6870     0.7180 ca         1 FRP      -0.022000
     21 C5           1.7990    -0.1330    -0.0450 ca         1 FRP      -0.148600
     22 C6           1.7880    -0.3510    -1.4440 ca         1 FRP      -0.076000
     23 C3           3.8860    -1.4320     0.1100 ca         1 FRP      -0.149600
     24 C2           3.8360    -1.6590    -1.2820 ca         1 FRP      -0.067000
     25 C1           2.7970    -1.1140    -2.0510 ca         1 FRP      -0.127000
     26 F1          -6.7300    -6.1190     0.2590 f          1 FRP      -0.179000
     27 C25         -6.4740    -2.4640     0.1550 ca         1 FRP      -0.125000
     28 N3          -5.3700    -0.9070     1.7680 ns         1 FRP      -0.144000
     29 O3          -5.9460     0.5380     0.0550 o          1 FRP      -0.582100
     30 C19         -4.9640     1.5130     2.0480 c3         1 FRP      -0.138700
     31 C21         -6.1040     2.5030     2.3900 c3         1 FRP      -0.086100
     32 C18         -3.7510     2.2350     1.3860 c3         1 FRP      -0.112400
     33 N4          -2.1390     0.5070     2.1180 n8         1 FRP      -0.996200
     34 C32         -0.5560     3.5030    -1.6670 ca         1 FRP      -0.073300
     35 C33          0.3110     4.4310    -1.0580 ca         1 FRP      -0.103500
     36 C29          1.6970     4.4730    -3.0580 ca         1 FRP      -0.108000
     37 N2          -0.3090     1.1310    -0.1280 ns         1 FRP      -0.472900
     38 O2           0.7710     0.9190     1.8530 o          1 FRP      -0.613100
     39 O1           4.7240    -2.4010     2.1120 o          1 FRP      -0.593100
     40 N1           6.2580    -2.2420     0.4000 n          1 FRP      -0.402800
     41 H31         -0.9460     2.3480    -3.4650 ha         1 FRP       0.106500
     42 H30          1.0390     3.2060    -4.6850 ha         1 FRP       0.111500
     43 H28          2.1000     5.6310    -1.2740 ha         1 FRP       0.111500
     44 H27         -4.7890    -3.1220     3.0610 ha         1 FRP       0.132500
     45 H24         -7.3710    -3.9760    -1.1150 ha         1 FRP       0.133500
     46 H22         -5.3820    -5.4490     2.4130 ha         1 FRP       0.133500
     47 H16         -2.9520     0.6020     0.1960 h1         1 FRP       0.059700
     48 H171        -2.4090     2.3870    -1.5760 hc         1 FRP       0.057700
     49 H172        -2.3630     3.8050    -0.5450 hc         1 FRP       0.057700
     50 H15         -0.9350     2.7260     1.0650 h1         1 FRP       0.082700
     51 H131         9.6950    -4.0470     2.1030 hc         1 FRP       0.034533
     52 H132         9.7610    -2.9400     3.4920 hc         1 FRP       0.034533
     53 H133         8.4850    -4.1740     3.4020 hc         1 FRP       0.034533
     54 H141         8.8710     0.2480    -1.8470 hc         1 FRP       0.034533
     55 H142         9.1090    -0.9420    -3.1450 hc         1 FRP       0.034533
     56 H143         7.5470    -0.1110    -2.9810 hc         1 FRP       0.034533
     57 H111         8.8150    -1.7650     1.5190 hc         1 FRP       0.046700
     58 H112         7.6080    -1.8930     2.7990 hc         1 FRP       0.046700
     59 H101         7.4330    -2.4620    -2.0970 hc         1 FRP       0.046700
     60 H102         8.7580    -2.1100    -0.9850 hc         1 FRP       0.046700
     61 H91          7.3570    -0.4500     0.2130 h1         1 FRP       0.053450
     62 H92          6.0830    -0.6140    -0.9750 h1         1 FRP       0.053450
     63 H81          6.6280    -3.9240     1.6400 h1         1 FRP       0.053450
     64 H82          7.7760    -3.7140     0.3320 h1         1 FRP       0.053450
     65 H4           2.8770    -0.5290     1.7950 ha         1 FRP       0.145000
     66 H6           1.0050     0.0600    -2.0770 ha         1 FRP       0.115000
     67 H2           4.5930    -2.2680    -1.7710 ha         1 FRP       0.120000
     68 H1           2.7720    -1.2870    -3.1250 ha         1 FRP       0.117000
     69 H25         -6.8030    -1.6570    -0.4930 ha         1 FRP       0.132500
     70 HN3         -4.9350    -0.8870     2.6810 hn         1 FRP       0.150000
     71 H19         -4.6240     1.0930     3.0030 hc         1 FRP       0.045700
     72 H211        -6.4990     2.9770     1.4830 hc         1 FRP       0.047700
     73 H212        -6.9300     1.9830     2.8920 hc         1 FRP       0.047700
     74 H213        -5.7440     3.2930     3.0600 hc         1 FRP       0.047700
     75 H181        -3.3700     3.0040     2.0710 hc         1 FRP       0.062700
     76 H182        -4.1250     2.7660     0.5030 hc         1 FRP       0.062700
     77 HN41        -1.1110     0.4430     2.0780 hn         1 FRP       0.400000
     78 HN42        -2.2940     1.0550     2.9700 hn         1 FRP       0.400000
     79 H33          0.1160     4.7770    -0.0450 ha         1 FRP       0.106500
     80 H29          2.5670     4.8470    -3.5940 ha         1 FRP       0.112000
     81 HN2         -0.2740     0.8830    -1.1070 hn         1 FRP       0.314500
     82 C17         -1.7620     2.9610    -0.9020 c3         1 FRP      -0.046100
@<TRIPOS>BOND
     1     1     2 ar  
     2     1    34 ar  
     3     1    41 1   
     4     2    36 ar  
     5     2    42 1   
     6     3    35 ar  
     7     3    36 ar  
     8     3    43 1   
     9     4     5 ar  
    10     4     8 ar  
    11     4    44 1   
    12     5    27 ar  
    13     5    28 1   
    14     6     7 ar  
    15     6    27 ar  
    16     6    45 1   
    17     7     8 ar  
    18     7    26 1   
    19     8    46 1   
    20     9    11 1   
    21     9    32 1   
    22     9    33 1   
    23     9    47 1   
    24    10    28 1   
    25    10    29 2   
    26    10    30 1   
    27    11    37 1   
    28    11    50 1   
    29    11    82 1   
    30    12    21 1   
    31    12    37 1   
    32    12    38 2   
    33    13    15 1   
    34    13    51 1   
    35    13    52 1   
    36    13    53 1   
    37    14    16 1   
    38    14    54 1   
    39    14    55 1   
    40    14    56 1   
    41    15    18 1   
    42    15    57 1   
    43    15    58 1   
    44    16    17 1   
    45    16    59 1   
    46    16    60 1   
    47    17    40 1   
    48    17    61 1   
    49    17    62 1   
    50    18    40 1   
    51    18    63 1   
    52    18    64 1   
    53    19    23 1   
    54    19    39 2   
    55    19    40 1   
    56    20    21 ar  
    57    20    23 ar  
    58    20    65 1   
    59    21    22 ar  
    60    22    25 ar  
    61    22    66 1   
    62    23    24 ar  
    63    24    25 ar  
    64    24    67 1   
    65    25    68 1   
    66    27    69 1   
    67    28    70 1   
    68    30    31 1   
    69    30    32 1   
    70    30    71 1   
    71    31    72 1   
    72    31    73 1   
    73    31    74 1   
    74    32    75 1   
    75    32    76 1   
    76    33    77 1   
    77    33    78 1   
    78    34    35 ar  
    79    34    82 1   
    80    35    79 1   
    81    36    80 1   
    82    37    81 1   
    83    48    82 1   
    84    49    82 1   
@<TRIPOS>SUBSTRUCTURE
     1 FRP         1 TEMP              0 ****  ****    0 ROOT
