@<TRIPOS>MOLECULE
FRR
   48    49     1     0     0
SMALL
No Charge or Current Charge


@<TRIPOS>ATOM
      1 C11         -1.6240    -0.0240    -1.3700 ca         1 FRR       0.218100
      2 C2          -2.1780     0.5080    -2.5490 ca         1 FRR      -0.198600
      3 C3          -1.4850     1.5270    -3.2500 ca         1 FRR       0.068200
      4 C14         -0.2610     1.9950    -2.7320 ca         1 FRR      -0.189000
      5 C15          0.2820     1.4640    -1.5570 ca         1 FRR       0.204100
      6 C16         -0.4020     0.4440    -0.8740 ca         1 FRR      -0.309000
      7 C23         -2.0400     2.1280    -4.5030 ce         1 FRR      -0.174200
      8 C17         -1.3230     2.7640    -5.4590 c2         1 FRR      -0.190200
      9 O15         -3.4320    -0.5990    -4.2750 os         1 FRR      -0.444100
     10 C26         -3.4960    -0.0230    -3.0280 c          1 FRR       0.626700
     11 C31         -4.5920    -1.2910    -4.7800 c3         1 FRR       0.180300
     12 C18         -4.4440    -1.4060    -6.3160 c3         1 FRR      -0.060200
     13 C24         -1.4560     2.4740    -7.9770 c3         1 FRR       0.139300
     14 C34         -1.8970     3.3160    -6.7480 c3         1 FRR      -0.043200
     15 C39         -2.5150     2.3920    -9.1160 c3         1 FRR       0.044300
     16 C40         -3.8450     1.7470    -8.6060 c          1 FRR       0.572300
     17 C41         -3.7290     0.3950    -7.9760 ce         1 FRR      -0.325200
     18 C42         -4.5780    -0.0750    -7.0330 c2         1 FRR      -0.122200
     19 O38         -4.5250     0.0750    -2.3720 o          1 FRR      -0.474000
     20 O40         -4.9170     2.3440    -8.6170 o          1 FRR      -0.487100
     21 O42         -0.2330     3.0170    -8.5060 oh         1 FRR      -0.661000
     22 O44         -2.6850     3.7070    -9.7050 oh         1 FRR      -0.624000
     23 O46         -2.2550    -1.0250    -0.6960 oh         1 FRR      -0.521100
     24 O48          1.4850     1.9760    -1.1160 os         1 FRR      -0.336100
     25 C59          2.1300     1.5020     0.0800 c3         1 FRR       0.147900
     26 C62         -4.6560    -2.6740    -4.0930 c3         1 FRR      -0.117100
     27 H46         -1.7130    -1.2500     0.0890 ho         1 FRR       0.469000
     28 H16          0.0030     0.0130     0.0360 ha         1 FRR       0.121000
     29 H591         3.0690     2.0440     0.2450 h1         1 FRR       0.044033
     30 H592         2.3640     0.4330     0.0000 h1         1 FRR       0.044033
     31 H593         1.4890     1.6590     0.9570 h1         1 FRR       0.044033
     32 H14          0.2790     2.7940    -3.2300 ha         1 FRR       0.136000
     33 H23         -3.1150     2.0080    -4.6400 ha         1 FRR       0.184000
     34 H17         -0.2420     2.8830    -5.3770 ha         1 FRR       0.180000
     35 H341        -2.9900     3.3380    -6.6740 hc         1 FRR       0.071700
     36 H342        -1.5940     4.3620    -6.8840 hc         1 FRR       0.071700
     37 H24         -1.2730     1.4500    -7.6240 h1         1 FRR       0.046700
     38 H42          0.2650     2.2750    -8.9170 ho         1 FRR       0.444000
     39 H39         -2.1240     1.7040    -9.8770 h1         1 FRR       0.039700
     40 H44         -1.7920     4.1220    -9.6790 ho         1 FRR       0.456000
     41 H41         -2.8350    -0.1710    -8.2350 ha         1 FRR       0.182000
     42 H1          -5.4490     0.5120    -6.7280 ha         1 FRR       0.190000
     43 H181        -5.2130    -2.0900    -6.6940 hc         1 FRR       0.065200
     44 H182        -3.4790    -1.8740    -6.5470 hc         1 FRR       0.065200
     45 H31         -5.5160    -0.7360    -4.5650 h1         1 FRR       0.068700
     46 H621        -4.7980    -2.5720    -3.0110 hc         1 FRR       0.050033
     47 H622        -5.4970    -3.2580    -4.4850 hc         1 FRR       0.050033
     48 H623        -3.7340    -3.2400    -4.2700 hc         1 FRR       0.050033
@<TRIPOS>BOND
     1     1     2 ar  
     2     1     6 ar  
     3     1    23 1   
     4     2     3 ar  
     5     2    10 1   
     6     3     4 ar  
     7     3     7 1   
     8     4     5 ar  
     9     4    32 1   
    10     5     6 ar  
    11     5    24 1   
    12     6    28 1   
    13     7     8 2   
    14     7    33 1   
    15     8    14 1   
    16     8    34 1   
    17     9    10 1   
    18     9    11 1   
    19    10    19 2   
    20    11    12 1   
    21    11    26 1   
    22    11    45 1   
    23    12    18 1   
    24    12    43 1   
    25    12    44 1   
    26    13    14 1   
    27    13    15 1   
    28    13    21 1   
    29    13    37 1   
    30    14    35 1   
    31    14    36 1   
    32    15    16 1   
    33    15    22 1   
    34    15    39 1   
    35    16    17 1   
    36    16    20 2   
    37    17    18 2   
    38    17    41 1   
    39    18    42 1   
    40    21    38 1   
    41    22    40 1   
    42    23    27 1   
    43    24    25 1   
    44    25    29 1   
    45    25    30 1   
    46    25    31 1   
    47    26    46 1   
    48    26    47 1   
    49    26    48 1   
@<TRIPOS>SUBSTRUCTURE
     1 FRR         1 TEMP              0 ****  ****    0 ROOT
