@<TRIPOS>MOLECULE
FRR
   48    49     1     0     0
SMALL
bcc


@<TRIPOS>ATOM
      1 C11         -1.6160     0.0020    -1.4310 ca         1 FRR       0.218100
      2 C2          -2.1440     0.5330    -2.6090 ca         1 FRR      -0.198600
      3 C3          -1.4420     1.5480    -3.2780 ca         1 FRR       0.068200
      4 C14         -0.2480     2.0190    -2.7460 ca         1 FRR      -0.207000
      5 C15          0.2730     1.4740    -1.5740 ca         1 FRR       0.204100
      6 C16         -0.4080     0.4580    -0.9130 ca         1 FRR      -0.327000
      7 C23         -1.9810     2.1360    -4.5110 ce         1 FRR      -0.124200
      8 C17         -1.2560     2.7060    -5.4730 c2         1 FRR      -0.140200
      9 O15         -3.3760    -0.5880    -4.2630 os         1 FRR      -0.420900
     10 C26         -3.4550    -0.0000    -3.0760 c          1 FRR       0.675700
     11 C31         -4.5390    -1.2860    -4.7610 c3         1 FRR       0.157100
     12 C18         -4.4130    -1.3460    -6.2760 c3         1 FRR      -0.060200
     13 C24         -1.4420     2.4040    -7.9420 c3         1 FRR       0.116100
     14 C34         -1.8620     3.2430    -6.7270 c3         1 FRR      -0.043200
     15 C39         -2.5310     2.3630    -9.0320 c3         1 FRR       0.021100
     16 C40         -3.8060     1.7740    -8.4630 c          1 FRR       0.572300
     17 C41         -3.6610     0.4370    -7.8580 ce         1 FRR      -0.275200
     18 C42         -4.5120    -0.0140    -6.9360 c2         1 FRR      -0.072200
     19 O38         -4.4670     0.0740    -2.4250 o          1 FRR      -0.523000
     20 O40         -4.8520     2.3850    -8.4760 o          1 FRR      -0.487100
     21 O42         -0.2540     2.9630    -8.4600 oh         1 FRR      -0.598800
     22 O44         -2.8020     3.6270    -9.5500 oh         1 FRR      -0.561800
     23 O46         -2.3000    -0.9890    -0.8350 oh         1 FRR      -0.482100
     24 O48          1.4320     1.9950    -1.1450 os         1 FRR      -0.312900
     25 C59          1.9970     1.5080     0.0580 c3         1 FRR       0.124700
     26 C62         -4.6050    -2.6710    -4.1450 c3         1 FRR      -0.117100
     27 H46         -1.8310    -1.3020    -0.0540 ho         1 FRR       0.430000
     28 H16         -0.0280     0.0140    -0.0010 ha         1 FRR       0.139000
     29 H591         2.9110     2.0740     0.2200 h1         1 FRR       0.044033
     30 H592         2.2470     0.4470    -0.0100 h1         1 FRR       0.044033
     31 H593         1.3330     1.6640     0.9110 h1         1 FRR       0.044033
     32 H14          0.2800     2.8340    -3.2230 ha         1 FRR       0.154000
     33 H23         -3.0580     2.0930    -4.6450 ha         1 FRR       0.134000
     34 H17         -0.1730     2.7410    -5.3940 ha         1 FRR       0.130000
     35 H341        -2.9480     3.2550    -6.6170 hc         1 FRR       0.071700
     36 H342        -1.5600     4.2810    -6.8920 hc         1 FRR       0.071700
     37 H24         -1.2610     1.3740    -7.6140 h1         1 FRR       0.046700
     38 H42          0.1620     2.3200    -9.0440 ho         1 FRR       0.405000
     39 H39         -2.1810     1.6650    -9.8160 h1         1 FRR       0.039700
     40 H44         -1.9570     4.0270    -9.7880 ho         1 FRR       0.417000
     41 H41         -2.8030    -0.1610    -8.1470 ha         1 FRR       0.132000
     42 H1          -5.3500     0.6110    -6.6380 ha         1 FRR       0.140000
     43 H181        -5.2480    -1.9580    -6.6330 hc         1 FRR       0.065200
     44 H182        -3.4960    -1.8620    -6.5690 hc         1 FRR       0.065200
     45 H31         -5.4380    -0.7230    -4.4970 h1         1 FRR       0.068700
     46 H621        -4.6940    -2.6260    -3.0600 hc         1 FRR       0.050033
     47 H622        -5.4810    -3.1990    -4.5240 hc         1 FRR       0.050033
     48 H623        -3.7210    -3.2580    -4.3970 hc         1 FRR       0.050033
@<TRIPOS>BOND
     1     1     2 ar  
     2     1     6 ar  
     3     1    23 1   
     4     2     3 ar  
     5     2    10 1   
     6     3     4 ar  
     7     3     7 1   
     8     4     5 ar  
     9     4    32 1   
    10     5     6 ar  
    11     5    24 1   
    12     6    28 1   
    13     7     8 2   
    14     7    33 1   
    15     8    14 1   
    16     8    34 1   
    17     9    10 1   
    18     9    11 1   
    19    10    19 2   
    20    11    12 1   
    21    11    26 1   
    22    11    45 1   
    23    12    18 1   
    24    12    43 1   
    25    12    44 1   
    26    13    14 1   
    27    13    15 1   
    28    13    21 1   
    29    13    37 1   
    30    14    35 1   
    31    14    36 1   
    32    15    16 1   
    33    15    22 1   
    34    15    39 1   
    35    16    17 1   
    36    16    20 2   
    37    17    18 2   
    38    17    41 1   
    39    18    42 1   
    40    21    38 1   
    41    22    40 1   
    42    23    27 1   
    43    24    25 1   
    44    25    29 1   
    45    25    30 1   
    46    25    31 1   
    47    26    46 1   
    48    26    47 1   
    49    26    48 1   
@<TRIPOS>SUBSTRUCTURE
     1 FRR         1 TEMP              0 ****  ****    0 ROOT
