@<TRIPOS>MOLECULE
FRS
   51    54     1     0     0
SMALL
abcg2


@<TRIPOS>ATOM
      1 N33         86.1360    77.8120    21.0360 na         1 FRS      -0.204700
      2 N29         88.5140    79.3280    19.1110 nu         1 FRS      -0.890800
      3 C30         87.7710    78.6960    20.0830 cc         1 FRS       0.791900
      4 C28         89.8470    79.6620    19.1100 ca         1 FRS       0.405900
      5 C27         90.7070    79.4520    20.1790 ca         1 FRS      -0.330000
      6 C23         92.0420    79.8450    20.0080 ca         1 FRS       0.392900
      7 C20         92.6980    77.5270    22.1800 c3         1 FRS      -0.034200
      8 C15         90.6070    76.0970    25.2450 cc         1 FRS       0.679100
      9 C12         88.4050    76.0570    25.8730 c          1 FRS       0.768500
     10 C10         86.2090    75.8080    26.9730 cc         1 FRS       0.118600
     11 C5          85.4030    75.4480    28.0230 cd         1 FRS      -0.083700
     12 C6          85.6380    74.8050    29.3240 c3         1 FRS       0.296700
     13 C3          85.3290    76.3670    25.9840 cc         1 FRS      -0.209000
     14 C2          84.0700    76.3030    26.4930 cd         1 FRS       0.194300
     15 C1          82.7500    76.7130    25.9650 c3         1 FRS      -0.131400
     16 O13         87.9800    76.6380    24.8680 o          1 FRS      -0.666100
     17 N11         87.5770    75.6470    26.8980 ns         1 FRS      -0.368100
     18 F9          86.9600    74.6890    29.5750 f          1 FRS      -0.108667
     19 F8          85.1120    73.5510    29.4130 f          1 FRS      -0.108667
     20 F7          85.0890    75.4900    30.3590 f          1 FRS      -0.108667
     21 O4          84.0930    75.7440    27.7330 os         1 FRS      -0.220000
     22 N14         89.7090    75.7390    26.1290 nf         1 FRS      -0.784100
     23 N17         91.9210    75.8330    25.4130 na         1 FRS      -0.725200
     24 C18         92.7680    76.2710    24.4100 cc         1 FRS      -0.022000
     25 C19         92.1300    76.8970    23.4070 cd         1 FRS      -0.118600
     26 S16         90.3960    76.9450    23.7220 ss         1 FRS       0.006200
     27 C21         92.7140    79.0690    22.2590 c3         1 FRS       0.234800
     28 N22         92.9660    79.7010    20.9830 nu         1 FRS      -0.939100
     29 N26         90.2660    80.2240    17.9520 nb         1 FRS      -0.283000
     30 C25         91.5510    80.5540    17.9040 ca         1 FRS       0.186900
     31 N24         92.4690    80.4020    18.8490 nb         1 FRS      -0.286000
     32 N35         86.4880    78.4220    19.8710 nd         1 FRS      -0.591800
     33 C32         87.1770    77.7450    21.8660 cd         1 FRS       0.455400
     34 N31         88.2400    78.3000    21.2960 nc         1 FRS      -0.749000
     35 HN29        88.0250    79.5360    18.2520 hn         1 FRS       0.527000
     36 H27         90.3470    78.9990    21.0840 ha         1 FRS       0.163000
     37 H20         93.7160    77.1630    22.0270 hc         1 FRS       0.066200
     38 H20A        92.1130    77.2270    21.3080 hc         1 FRS       0.066200
     39 H3          85.6150    76.7640    25.0290 ha         1 FRS       0.163000
     40 H1          82.0790    75.8550    25.8850 hc         1 FRS       0.061700
     41 H1A         82.2780    77.4480    26.6220 hc         1 FRS       0.061700
     42 H1B         82.8720    77.1540    24.9770 hc         1 FRS       0.061700
     43 HN11        88.0430    75.1970    27.6700 hn         1 FRS       0.350500
     44 HN17        92.2430    75.3410    26.2340 hn         1 FRS       0.531000
     45 H18         93.8260    76.0850    24.5010 h4         1 FRS       0.233000
     46 H21         91.7630    79.4300    22.6550 h1         1 FRS       0.060200
     47 H21A        93.4890    79.3900    22.9540 h1         1 FRS       0.060200
     48 HN22        93.9120    79.9520    20.7410 hn         1 FRS       0.505000
     49 H25         91.8920    81.0040    16.9760 h5         1 FRS       0.044100
     50 H32         87.1450    77.2980    22.8480 h5         1 FRS       0.095100
     51 H17         85.1930    77.4800    21.1760 hn         1 FRS       0.380000
@<TRIPOS>BOND
     1     1    32 1   
     2     1    33 1   
     3     1    51 1   
     4     2     3 1   
     5     2     4 1   
     6     2    35 1   
     7     3    32 2   
     8     3    34 1   
     9     4     5 ar  
    10     4    29 ar  
    11     5     6 ar  
    12     5    36 1   
    13     6    28 1   
    14     6    31 ar  
    15     7    25 1   
    16     7    27 1   
    17     7    37 1   
    18     7    38 1   
    19     8    22 2   
    20     8    23 1   
    21     8    26 1   
    22     9    16 2   
    23     9    17 1   
    24     9    22 1   
    25    10    11 2   
    26    10    13 1   
    27    10    17 1   
    28    11    12 1   
    29    11    21 1   
    30    12    18 1   
    31    12    19 1   
    32    12    20 1   
    33    13    14 2   
    34    13    39 1   
    35    14    15 1   
    36    14    21 1   
    37    15    40 1   
    38    15    41 1   
    39    15    42 1   
    40    17    43 1   
    41    23    24 1   
    42    23    44 1   
    43    24    25 2   
    44    24    45 1   
    45    25    26 1   
    46    27    28 1   
    47    27    46 1   
    48    27    47 1   
    49    28    48 1   
    50    29    30 ar  
    51    30    31 ar  
    52    30    49 1   
    53    33    34 2   
    54    33    50 1   
@<TRIPOS>SUBSTRUCTURE
     1 FRS         1 TEMP              0 ****  ****    0 ROOT
