@<TRIPOS>MOLECULE
FRS
   51    54     1     0     0
SMALL
No Charge or Current Charge


@<TRIPOS>ATOM
      1 N33         85.7320    78.5380    22.8120 na         1 FRS      -0.204700
      2 N29         88.0440    80.2570    21.1060 nu         1 FRS      -0.890800
      3 C30         87.2990    79.3920    21.8030 cc         1 FRS       0.791900
      4 C28         89.3470    80.2740    20.6540 ca         1 FRS       0.405900
      5 C27         90.3990    79.6490    21.3280 ca         1 FRS      -0.330000
      6 C23         91.6800    79.7880    20.7880 ca         1 FRS       0.392900
      7 C20         92.3670    76.9010    22.1740 c3         1 FRS      -0.034200
      8 C15         90.7720    75.0570    25.2420 cc         1 FRS       0.679100
      9 C12         88.6550    74.5540    25.8390 c          1 FRS       0.768500
     10 C10         86.5580    75.8810    25.9060 cc         1 FRS       0.118600
     11 C5          85.9100    77.0670    26.1400 cd         1 FRS      -0.083700
     12 C6          86.4480    78.3590    26.7170 c3         1 FRS       0.296700
     13 C3          85.6020    75.0250    25.3260 cc         1 FRS      -0.209000
     14 C2          84.4390    75.7350    25.2480 cd         1 FRS       0.194300
     15 C1          83.0970    75.3240    24.7170 c3         1 FRS      -0.131400
     16 O13         88.2440    73.5600    25.2690 o          1 FRS      -0.666100
     17 N11         87.8950    75.6360    26.1780 ns         1 FRS      -0.368100
     18 F9          87.4890    78.8280    25.9930 f          1 FRS      -0.108667
     19 F8          86.8900    78.1910    27.9830 f          1 FRS      -0.108667
     20 F7          85.5170    79.3390    26.7500 f          1 FRS      -0.108667
     21 O4          84.5910    77.0110    25.7350 os         1 FRS      -0.220000
     22 N14         89.9920    74.6690    26.1890 nf         1 FRS      -0.784100
     23 N17         92.1130    74.8110    25.2790 na         1 FRS      -0.725200
     24 C18         92.8310    75.3820    24.2140 cc         1 FRS      -0.022000
     25 C19         91.9850    76.1020    23.3930 cd         1 FRS      -0.118600
     26 S16         90.3060    76.0670    23.8920 ss         1 FRS       0.006200
     27 C21         92.8440    78.3240    22.5430 c3         1 FRS       0.234800
     28 N22         92.8020    79.2300    21.3800 nu         1 FRS      -0.939100
     29 N26         89.5570    81.0100    19.5530 nb         1 FRS      -0.283000
     30 C25         90.8290    81.0820    19.1120 ca         1 FRS       0.186900
     31 N24         91.9070    80.5020    19.6780 nb         1 FRS      -0.286000
     32 N35         86.0860    79.7060    22.1690 nd         1 FRS      -0.591800
     33 C32         86.7740    77.6240    22.7550 cd         1 FRS       0.455400
     34 N31         87.7810    78.1770    22.1040 nc         1 FRS      -0.749000
     35 HN29        87.4550    80.9860    20.7270 hn         1 FRS       0.527000
     36 H27         90.2250    79.0950    22.2400 ha         1 FRS       0.163000
     37 H20         93.1560    76.3920    21.6080 hc         1 FRS       0.066200
     38 H20A        91.5030    76.9680    21.5030 hc         1 FRS       0.066200
     39 H3          85.7580    74.0020    25.0070 ha         1 FRS       0.163000
     40 H1          82.3810    75.1860    25.5350 hc         1 FRS       0.061700
     41 H1A         82.6940    76.0850    24.0380 hc         1 FRS       0.061700
     42 H1B         83.1640    74.3800    24.1630 hc         1 FRS       0.061700
     43 HN11        88.4230    76.3490    26.6590 hn         1 FRS       0.350500
     44 HN17        92.5110    74.2590    26.0330 hn         1 FRS       0.531000
     45 H18         93.9100    75.2580    24.1170 h4         1 FRS       0.233000
     46 H21         92.2150    78.7250    23.3510 h1         1 FRS       0.060200
     47 H21A        93.8680    78.2560    22.9370 h1         1 FRS       0.060200
     48 HN22        93.6840    79.4210    20.8980 hn         1 FRS       0.505000
     49 H25         91.0050    81.6710    18.2130 h5         1 FRS       0.044100
     50 H32         86.7200    76.6280    23.1800 h5         1 FRS       0.095100
     51 H17         84.8280    78.3900    23.2540 hn         1 FRS       0.380000
@<TRIPOS>BOND
     1     1    32 1   
     2     1    33 1   
     3     1    51 1   
     4     2     3 1   
     5     2     4 1   
     6     2    35 1   
     7     3    32 2   
     8     3    34 1   
     9     4     5 ar  
    10     4    29 ar  
    11     5     6 ar  
    12     5    36 1   
    13     6    28 1   
    14     6    31 ar  
    15     7    25 1   
    16     7    27 1   
    17     7    37 1   
    18     7    38 1   
    19     8    22 2   
    20     8    23 1   
    21     8    26 1   
    22     9    16 2   
    23     9    17 1   
    24     9    22 1   
    25    10    11 2   
    26    10    13 1   
    27    10    17 1   
    28    11    12 1   
    29    11    21 1   
    30    12    18 1   
    31    12    19 1   
    32    12    20 1   
    33    13    14 2   
    34    13    39 1   
    35    14    15 1   
    36    14    21 1   
    37    15    40 1   
    38    15    41 1   
    39    15    42 1   
    40    17    43 1   
    41    23    24 1   
    42    23    44 1   
    43    24    25 2   
    44    24    45 1   
    45    25    26 1   
    46    27    28 1   
    47    27    46 1   
    48    27    47 1   
    49    28    48 1   
    50    29    30 ar  
    51    30    31 ar  
    52    30    49 1   
    53    33    34 2   
    54    33    50 1   
@<TRIPOS>SUBSTRUCTURE
     1 FRS         1 TEMP              0 ****  ****    0 ROOT
