@<TRIPOS>MOLECULE
FRT
   56    58     1     0     0
SMALL
bcc


@<TRIPOS>ATOM
      1 C1          -1.5610     2.5730     9.0920 ca         1 FRT       0.597800
      2 N2          -1.7660     1.9350    10.2420 nb         1 FRT      -0.782000
      3 C3          -3.0210     1.7440    10.6260 ca         1 FRT       0.914900
      4 N4          -4.1150     2.0960     9.9530 nb         1 FRT      -0.762000
      5 C5          -3.9030     2.7160     8.8010 ca         1 FRT       0.479200
      6 C6          -2.6440     2.9990     8.3150 ca         1 FRT      -0.406600
      7 N7          -3.2680     1.1580    11.8370 nu         1 FRT      -0.745300
      8 C8          -2.3770     0.6600    12.7720 ca         1 FRT       0.236600
      9 C9          -1.1660     0.0500    12.4280 ca         1 FRT      -0.192000
     10 C10         -0.3450    -0.4610    13.4130 ca         1 FRT      -0.000500
     11 C11         -0.7110    -0.3580    14.7510 ca         1 FRT      -0.313500
     12 C12         -1.9180     0.2270    15.1060 ca         1 FRT      -0.000500
     13 C13         -2.7450     0.7280    14.1190 ca         1 FRT      -0.192000
     14 S14          0.3350    -1.0420    15.9920 sy         1 FRT       1.295200
     15 N15          1.7870    -0.3740    15.5880 n7         1 FRT      -0.839100
     16 C16          1.9680     1.0600    15.7740 c3         1 FRT       0.200800
     17 C17          3.1570     1.4980    14.9390 c3         1 FRT       0.129400
     18 O18          3.2830     2.8900    15.0440 os         1 FRT      -0.409600
     19 C19          4.4090     3.3800    14.3610 c3         1 FRT       0.122700
     20 C20         -0.2090     2.8390     8.6240 cc         1 FRT      -0.317100
     21 N21          0.9760     2.8610     9.3410 na         1 FRT      -0.149900
     22 C22          1.9550     3.1910     8.4640 cc         1 FRT       0.425800
     23 N23          1.4790     3.3630     7.2470 nd         1 FRT      -0.685000
     24 C24          0.1510     3.1540     7.3350 cd         1 FRT       0.345200
     25 C25          1.1430     2.5630    10.7730 c3         1 FRT       0.046000
     26 C26          1.8640     1.2360    10.9670 c3         1 FRT      -0.106100
     27 C27          1.7890     3.7110    11.5370 c3         1 FRT      -0.106100
     28 C28          3.3920     3.4050     8.7850 c3         1 FRT      -0.122400
     29 O29         -0.1540    -0.5840    17.2880 o          1 FRT      -0.613300
     30 O30          0.4940    -2.4750    15.7910 o          1 FRT      -0.613300
     31 H6          -2.5180     3.5430     7.3920 ha         1 FRT       0.161000
     32 H7          -4.2300     1.2310    12.1320 hn         1 FRT       0.461800
     33 H5          -4.7840     3.0140     8.2430 h4         1 FRT       0.028100
     34 H9          -0.8710    -0.0390    11.3950 ha         1 FRT       0.149500
     35 H13         -3.6810     1.1940    14.3990 ha         1 FRT       0.149500
     36 H10          0.5850    -0.9370    13.1300 ha         1 FRT       0.154000
     37 H12         -2.2140     0.3140    16.1420 ha         1 FRT       0.154000
     38 H15          2.5530    -0.9430    15.9380 hn         1 FRT       0.429800
     39 H161         1.0720     1.5760    15.4210 h1         1 FRT       0.064700
     40 H162         2.1150     1.3260    16.8250 h1         1 FRT       0.064700
     41 H171         4.0690     0.9910    15.2870 h1         1 FRT       0.029200
     42 H172         3.0010     1.1890    13.8960 h1         1 FRT       0.029200
     43 H191         4.3770     3.1410    13.2910 h1         1 FRT       0.031367
     44 H192         4.4240     4.4630    14.4700 h1         1 FRT       0.031367
     45 H193         5.3420     2.9740    14.7680 h1         1 FRT       0.031367
     46 H24         -0.4930     3.2160     6.4710 h4         1 FRT       0.038100
     47 H25          0.1340     2.4400    11.1540 h1         1 FRT       0.101700
     48 H281         3.9530     3.4070     7.8540 hc         1 FRT       0.055700
     49 H282         3.5550     4.3700     9.2680 hc         1 FRT       0.055700
     50 H283         3.8160     2.6380     9.4290 hc         1 FRT       0.055700
     51 H261         2.9040     1.2680    10.6460 hc         1 FRT       0.047533
     52 H262         1.8620     0.9750    12.0250 hc         1 FRT       0.047533
     53 H263         1.3630     0.4330    10.4260 hc         1 FRT       0.047533
     54 H271         1.6940     3.5220    12.6070 hc         1 FRT       0.047533
     55 H272         2.8500     3.8240    11.3230 hc         1 FRT       0.047533
     56 H273         1.2910     4.6560    11.3200 hc         1 FRT       0.047533
@<TRIPOS>BOND
     1     1     2 ar  
     2     1     6 ar  
     3     1    20 1   
     4     2     3 ar  
     5     3     4 ar  
     6     3     7 1   
     7     4     5 ar  
     8     5     6 ar  
     9     5    33 1   
    10     6    31 1   
    11     7     8 1   
    12     7    32 1   
    13     8     9 ar  
    14     8    13 ar  
    15     9    10 ar  
    16     9    34 1   
    17    10    11 ar  
    18    10    36 1   
    19    11    12 ar  
    20    11    14 1   
    21    12    13 ar  
    22    12    37 1   
    23    13    35 1   
    24    14    15 1   
    25    14    29 2   
    26    14    30 2   
    27    15    16 1   
    28    15    38 1   
    29    16    17 1   
    30    16    39 1   
    31    16    40 1   
    32    17    18 1   
    33    17    41 1   
    34    17    42 1   
    35    18    19 1   
    36    19    43 1   
    37    19    44 1   
    38    19    45 1   
    39    20    21 1   
    40    20    24 2   
    41    21    22 1   
    42    21    25 1   
    43    22    23 2   
    44    22    28 1   
    45    23    24 1   
    46    24    46 1   
    47    25    26 1   
    48    25    27 1   
    49    25    47 1   
    50    26    51 1   
    51    26    52 1   
    52    26    53 1   
    53    27    54 1   
    54    27    55 1   
    55    27    56 1   
    56    28    48 1   
    57    28    49 1   
    58    28    50 1   
@<TRIPOS>SUBSTRUCTURE
     1 FRT         1 TEMP              0 ****  ****    0 ROOT
