@<TRIPOS>MOLECULE
FRT
   56    58     1     0     0
SMALL
No Charge or Current Charge


@<TRIPOS>ATOM
      1 C1          -1.5940     2.7130     9.1430 ca         1 FRT       0.269500
      2 N2          -1.7830     2.0310    10.2890 nb         1 FRT      -0.256000
      3 C3          -3.0500     1.8490    10.7020 ca         1 FRT       0.388900
      4 N4          -4.1620     2.2890    10.0930 nb         1 FRT      -0.236000
      5 C5          -3.9850     2.9610     8.9410 ca         1 FRT       0.150900
      6 C6          -2.7020     3.2000     8.4230 ca         1 FRT      -0.258000
      7 N7          -3.2490     1.2110    11.9170 nu         1 FRT      -0.938900
      8 C8          -2.3850     0.5650    12.8000 ca         1 FRT       0.375000
      9 C9          -1.3450    -0.2530    12.3310 ca         1 FRT      -0.174000
     10 C10         -0.4690    -0.8770    13.2320 ca         1 FRT       0.017500
     11 C11         -0.6350    -0.6850    14.6160 ca         1 FRT      -0.313500
     12 C12         -1.6920     0.1150    15.0930 ca         1 FRT       0.017500
     13 C13         -2.5680     0.7290    14.1810 ca         1 FRT      -0.174000
     14 S14          0.5310    -1.4360    15.7570 sy         1 FRT       1.153600
     15 N15          1.9110    -0.5650    15.4250 n7         1 FRT      -0.894300
     16 C16          1.8160     0.9140    15.4360 c3         1 FRT       0.200800
     17 C17          3.1750     1.5630    15.0840 c3         1 FRT       0.152600
     18 O18          3.0010     2.9920    15.0550 os         1 FRT      -0.456000
     19 C19          4.1810     3.7280    14.6950 c3         1 FRT       0.145900
     20 C20         -0.2240     2.9460     8.6650 cc         1 FRT      -0.302500
     21 N21          1.0000     2.9130     9.3260 na         1 FRT      -0.128500
     22 C22          1.9660     3.0050     8.3240 cc         1 FRT       0.425800
     23 N23          1.4090     3.0590     7.1220 nd         1 FRT      -0.685000
     24 C24          0.0490     2.9980     7.3240 cd         1 FRT       0.279900
     25 C25          1.2160     2.8420    10.7980 c3         1 FRT       0.075300
     26 C26          1.6580     1.4360    11.2550 c3         1 FRT      -0.106100
     27 C27          2.1270     3.9560    11.3610 c3         1 FRT      -0.106100
     28 C28          3.4580     3.0350     8.5170 c3         1 FRT      -0.122400
     29 O29          0.1760    -1.1250    17.1430 o          1 FRT      -0.542500
     30 O30          0.8270    -2.7950    15.3020 o          1 FRT      -0.542500
     31 H6          -2.5820     3.7640     7.5030 ha         1 FRT       0.143000
     32 H7          -4.1790     1.3770    12.2980 hn         1 FRT       0.517000
     33 H5          -4.8790     3.3220     8.4360 h4         1 FRT       0.028100
     34 H9          -1.2160    -0.4100    11.2650 ha         1 FRT       0.131500
     35 H13         -3.3740     1.3540    14.5520 ha         1 FRT       0.131500
     36 H10          0.3440    -1.4960    12.8540 ha         1 FRT       0.136000
     37 H12         -1.8340     0.2730    16.1610 ha         1 FRT       0.136000
     38 H15          2.5140    -0.8710    16.1870 hn         1 FRT       0.485000
     39 H161         1.0810     1.2650    14.6990 h1         1 FRT       0.064700
     40 H162         1.4940     1.2790    16.4220 h1         1 FRT       0.064700
     41 H171         3.9240     1.2780    15.8340 h1         1 FRT       0.029200
     42 H172         3.5070     1.1960    14.1040 h1         1 FRT       0.029200
     43 H191         4.5250     3.4460    13.6910 h1         1 FRT       0.031367
     44 H192         3.9730     4.8050    14.6930 h1         1 FRT       0.031367
     45 H193         4.9940     3.5370    15.4080 h1         1 FRT       0.031367
     46 H24         -0.6440     2.9770     6.4920 h4         1 FRT       0.038100
     47 H25          0.2440     3.0300    11.2660 h1         1 FRT       0.101700
     48 H281         3.9780     2.8180     7.5770 hc         1 FRT       0.055700
     49 H282         3.7860     4.0250     8.8530 hc         1 FRT       0.055700
     50 H283         3.7860     2.2910     9.2490 hc         1 FRT       0.055700
     51 H261         2.6790     1.2080    10.9290 hc         1 FRT       0.047533
     52 H262         1.6260     1.3610    12.3480 hc         1 FRT       0.047533
     53 H263         0.9910     0.6700    10.8430 hc         1 FRT       0.047533
     54 H271         2.0260     4.0070    12.4520 hc         1 FRT       0.047533
     55 H272         3.1830     3.7750    11.1380 hc         1 FRT       0.047533
     56 H273         1.8420     4.9330    10.9530 hc         1 FRT       0.047533
@<TRIPOS>BOND
     1     1     2 ar  
     2     1     6 ar  
     3     1    20 1   
     4     2     3 ar  
     5     3     4 ar  
     6     3     7 1   
     7     4     5 ar  
     8     5     6 ar  
     9     5    33 1   
    10     6    31 1   
    11     7     8 1   
    12     7    32 1   
    13     8     9 ar  
    14     8    13 ar  
    15     9    10 ar  
    16     9    34 1   
    17    10    11 ar  
    18    10    36 1   
    19    11    12 ar  
    20    11    14 1   
    21    12    13 ar  
    22    12    37 1   
    23    13    35 1   
    24    14    15 1   
    25    14    29 2   
    26    14    30 2   
    27    15    16 1   
    28    15    38 1   
    29    16    17 1   
    30    16    39 1   
    31    16    40 1   
    32    17    18 1   
    33    17    41 1   
    34    17    42 1   
    35    18    19 1   
    36    19    43 1   
    37    19    44 1   
    38    19    45 1   
    39    20    21 1   
    40    20    24 2   
    41    21    22 1   
    42    21    25 1   
    43    22    23 2   
    44    22    28 1   
    45    23    24 1   
    46    24    46 1   
    47    25    26 1   
    48    25    27 1   
    49    25    47 1   
    50    26    51 1   
    51    26    52 1   
    52    26    53 1   
    53    27    54 1   
    54    27    55 1   
    55    27    56 1   
    56    28    48 1   
    57    28    49 1   
    58    28    50 1   
@<TRIPOS>SUBSTRUCTURE
     1 FRT         1 TEMP              0 ****  ****    0 ROOT
