@<TRIPOS>MOLECULE
FRU
   24    24     1     0     0
SMALL
bcc


@<TRIPOS>ATOM
      1 C1          -6.7400    19.9130    85.8110 c3         1 FRU       0.149400
      2 C2          -7.0650    18.7440    84.8890 c5         1 FRU       0.356600
      3 C3          -7.3860    17.4410    85.6460 c5         1 FRU       0.082100
      4 C4          -6.8460    16.3700    84.7140 c5         1 FRU       0.071100
      5 C5          -5.5870    17.0590    84.1890 c5         1 FRU       0.114100
      6 C6          -5.1390    16.5470    82.8430 c3         1 FRU       0.142400
      7 O1          -5.5860    19.6050    86.5500 oh         1 FRU      -0.592800
      8 O2          -8.1040    19.1890    84.0820 oh         1 FRU      -0.583800
      9 O3          -8.7530    17.3660    85.9340 oh         1 FRU      -0.582800
     10 O4          -6.6200    15.1760    85.4120 oh         1 FRU      -0.584800
     11 O5          -5.9290    18.4350    84.1090 os         1 FRU      -0.398600
     12 O6          -3.9330    17.1760    82.4830 oh         1 FRU      -0.574800
     13 H11         -6.6010    20.8170    85.2010 h1         1 FRU       0.047700
     14 H12         -7.6070    20.0900    86.4570 h1         1 FRU       0.047700
     15 H3          -6.7790    17.4160    86.5610 h1         1 FRU       0.079700
     16 H4          -7.5560    16.2140    83.8860 h1         1 FRU       0.042700
     17 H5          -4.7780    16.9150    84.9190 h1         1 FRU       0.083700
     18 H61         -5.0200    15.4570    82.9200 h1         1 FRU       0.017700
     19 H62         -5.9360    16.7310    82.1090 h1         1 FRU       0.017700
     20 HO1         -5.5720    20.1600    87.3350 ho         1 FRU       0.408000
     21 HO2         -8.5500    18.4460    83.6600 ho         1 FRU       0.420000
     22 HO3         -8.9030    16.5810    86.4700 ho         1 FRU       0.421000
     23 HO4         -6.4890    14.4630    84.7800 ho         1 FRU       0.413000
     24 HO6         -3.6680    16.8450    81.6200 ho         1 FRU       0.403000
@<TRIPOS>BOND
     1     1     2 1   
     2     1     7 1   
     3     1    13 1   
     4     1    14 1   
     5     2     3 1   
     6     2     8 1   
     7     2    11 1   
     8     3     4 1   
     9     3     9 1   
    10     3    15 1   
    11     4     5 1   
    12     4    10 1   
    13     4    16 1   
    14     5     6 1   
    15     5    11 1   
    16     5    17 1   
    17     6    12 1   
    18     6    18 1   
    19     6    19 1   
    20     7    20 1   
    21     8    21 1   
    22     9    22 1   
    23    10    23 1   
    24    12    24 1   
@<TRIPOS>SUBSTRUCTURE
     1 FRU         1 TEMP              0 ****  ****    0 ROOT
