@<TRIPOS>MOLECULE
FRU
   24    24     1     0     0
SMALL
No Charge or Current Charge


@<TRIPOS>ATOM
      1 C1          -6.7900    20.0070    85.8110 c3         1 FRU       0.172600
      2 C2          -7.0190    18.7330    84.9180 c5         1 FRU       0.403000
      3 C3          -7.3170    17.4080    85.7010 c5         1 FRU       0.105300
      4 C4          -6.9140    16.3650    84.6220 c5         1 FRU       0.094300
      5 C5          -5.5700    17.0140    84.1670 c5         1 FRU       0.137300
      6 C6          -5.0360    16.5130    82.7950 c3         1 FRU       0.165600
      7 O1          -5.7610    19.8240    86.8150 oh         1 FRU      -0.715000
      8 O2          -8.0980    18.9840    84.0270 oh         1 FRU      -0.706000
      9 O3          -8.6940    17.2730    86.1110 oh         1 FRU      -0.705000
     10 O4          -6.7870    15.0440    85.1740 oh         1 FRU      -0.707000
     11 O5          -5.8440    18.4450    84.1240 os         1 FRU      -0.445000
     12 O6          -3.7010    16.9880    82.5430 oh         1 FRU      -0.697000
     13 H11         -6.5300    20.8450    85.1500 h1         1 FRU       0.047700
     14 H12         -7.7430    20.2600    86.2970 h1         1 FRU       0.047700
     15 H3          -6.6510    17.3290    86.5730 h1         1 FRU       0.079700
     16 H4          -7.6370    16.3590    83.7930 h1         1 FRU       0.042700
     17 H5          -4.7960    16.8350    84.9270 h1         1 FRU       0.083700
     18 H61         -5.0420    15.4150    82.7960 h1         1 FRU       0.017700
     19 H62         -5.7200    16.8470    82.0020 h1         1 FRU       0.017700
     20 HO1         -5.6460    20.6910    87.2710 ho         1 FRU       0.507000
     21 HO2         -8.8500    18.5390    84.4870 ho         1 FRU       0.519000
     22 HO3         -8.7960    16.3400    86.4190 ho         1 FRU       0.520000
     23 HO4         -6.7480    14.4060    84.4210 ho         1 FRU       0.512000
     24 HO6         -3.4570    16.6920    81.6350 ho         1 FRU       0.502000
@<TRIPOS>BOND
     1     1     2 1   
     2     1     7 1   
     3     1    13 1   
     4     1    14 1   
     5     2     3 1   
     6     2     8 1   
     7     2    11 1   
     8     3     4 1   
     9     3     9 1   
    10     3    15 1   
    11     4     5 1   
    12     4    10 1   
    13     4    16 1   
    14     5     6 1   
    15     5    11 1   
    16     5    17 1   
    17     6    12 1   
    18     6    18 1   
    19     6    19 1   
    20     7    20 1   
    21     8    21 1   
    22     9    22 1   
    23    10    23 1   
    24    12    24 1   
@<TRIPOS>SUBSTRUCTURE
     1 FRU         1 TEMP              0 ****  ****    0 ROOT
