@<TRIPOS>MOLECULE
FRW
   65    66     1     0     0
SMALL
abcg2


@<TRIPOS>ATOM
      1 O6          -8.1580     3.0040     1.7870 o          1 FRW      -0.715000
      2 C4          -7.2480     3.1710     0.9540 c          1 FRW       0.710600
      3 O5          -7.0350     4.1890     0.2700 o          1 FRW      -0.715000
      4 C3          -6.2910     2.0010     0.7470 ca         1 FRW      -0.106600
      5 C2          -6.4550     0.8080     1.4480 ca         1 FRW      -0.101000
      6 C1          -5.5930    -0.2590     1.2520 ca         1 FRW      -0.101000
      7 C7          -5.2340     2.0980    -0.1540 ca         1 FRW      -0.101000
      8 C8          -4.3590     1.0400    -0.3440 ca         1 FRW      -0.101000
      9 C9          -4.5260    -0.1500     0.3620 ca         1 FRW      -0.189600
     10 C10         -3.6310    -1.3320     0.1750 c          1 FRW       0.625700
     11 O11         -4.0320    -2.4690     0.3810 o          1 FRW      -0.636100
     12 N12         -2.3770    -1.0480    -0.2250 ns         1 FRW      -0.499900
     13 C13         -1.3600    -2.0430    -0.4470 c3         1 FRW       0.044700
     14 C14         -1.0830    -2.2720    -1.9510 c3         1 FRW      -0.062700
     15 C15         -2.3300    -2.8010    -2.6490 c3         1 FRW      -0.089600
     16 C16         -0.5540    -1.0190    -2.6410 c3         1 FRW      -0.089600
     17 C17         -0.0910    -1.5970     0.2720 c          1 FRW       0.598100
     18 O18          0.0730    -0.4270     0.5990 o          1 FRW      -0.619100
     19 N19          0.8560    -2.5190     0.4940 n          1 FRW      -0.401800
     20 C23          0.7930    -3.9570     0.2610 c5         1 FRW       0.110000
     21 C22          1.8350    -4.4950     1.2300 c5         1 FRW      -0.096400
     22 C21          2.9120    -3.4150     1.1990 c5         1 FRW      -0.084400
     23 C20          2.1070    -2.1110     1.1130 c5         1 FRW       0.030700
     24 C24          2.8070    -1.0680     0.2530 c          1 FRW       0.606100
     25 O25          2.9210    -1.2080    -0.9520 o          1 FRW      -0.589100
     26 N26          3.3330    -0.0350     0.9380 ns         1 FRW      -0.492900
     27 C27          3.9620     1.0840     0.2750 c3         1 FRW       0.030700
     28 C28          2.9580     2.1780    -0.1490 c3         1 FRW      -0.074700
     29 C29          2.0670     2.6880     0.9760 c3         1 FRW      -0.094600
     30 C30          3.6610     3.3250    -0.8670 c3         1 FRW      -0.094600
     31 C31          5.0480     1.5890     1.2100 c          1 FRW       0.514100
     32 O32          4.8410     2.0150     2.3100 o          1 FRW      -0.441100
     33 C33          6.5010     1.4690     0.7180 c3         1 FRW       0.198000
     34 F36          7.3610     1.9260     1.6140 f          1 FRW      -0.103667
     35 F34          6.7800     0.1850     0.4800 f          1 FRW      -0.103667
     36 F35          6.6780     2.1450    -0.4180 f          1 FRW      -0.103667
     37 H2          -7.2690     0.7120     2.1530 ha         1 FRW       0.131500
     38 H1          -5.7430    -1.1800     1.8000 ha         1 FRW       0.097000
     39 H7          -5.0990     3.0100    -0.7200 ha         1 FRW       0.131500
     40 H8          -3.5660     1.1470    -1.0740 ha         1 FRW       0.097000
     41 HN12        -2.0660    -0.0900    -0.2010 hn         1 FRW       0.338500
     42 H13         -1.7160    -2.9810    -0.0170 h1         1 FRW       0.086700
     43 H14         -0.3140    -3.0470    -2.0220 hc         1 FRW       0.039700
     44 H15         -2.1020    -3.0590    -3.6840 hc         1 FRW       0.039367
     45 H15A        -2.7120    -3.6970    -2.1590 hc         1 FRW       0.039367
     46 H15B        -3.1280    -2.0570    -2.6650 hc         1 FRW       0.039367
     47 H16          0.3800    -0.6680    -2.2020 hc         1 FRW       0.039367
     48 H16A        -0.3610    -1.2250    -3.6940 hc         1 FRW       0.039367
     49 H16B        -1.2790    -0.2030    -2.6000 hc         1 FRW       0.039367
     50 H23         -0.2040    -4.3510     0.4540 h1         1 FRW       0.057700
     51 H23A         1.0650    -4.1980    -0.7710 h1         1 FRW       0.057700
     52 H22          1.4070    -4.5840     2.2300 hc         1 FRW       0.056200
     53 H22A         2.2080    -5.4740     0.9330 hc         1 FRW       0.056200
     54 H21          3.5630    -3.4250     2.0710 hc         1 FRW       0.061700
     55 H21A         3.5350    -3.5370     0.3110 hc         1 FRW       0.061700
     56 H20          1.9160    -1.7160     2.1160 h1         1 FRW       0.068700
     57 HN26         3.0610     0.0790     1.9030 hn         1 FRW       0.327500
     58 H27          4.4190     0.7020    -0.6390 h1         1 FRW       0.097700
     59 H28          2.3130     1.6720    -0.8750 hc         1 FRW       0.079700
     60 H29          2.6130     3.2830     1.7080 hc         1 FRW       0.042867
     61 H29A         1.2900     3.3260     0.5550 hc         1 FRW       0.042867
     62 H29B         1.5630     1.8730     1.4960 hc         1 FRW       0.042867
     63 H30          4.2810     2.9720    -1.6920 hc         1 FRW       0.042867
     64 H30A         2.9230     4.0090    -1.2850 hc         1 FRW       0.042867
     65 H30B         4.2890     3.9070    -0.1900 hc         1 FRW       0.042867
@<TRIPOS>BOND
     1     1     2 1   
     2     2     3 1   
     3     2     4 1   
     4     4     5 ar  
     5     4     7 ar  
     6     5     6 ar  
     7     5    37 1   
     8     6     9 ar  
     9     6    38 1   
    10     7     8 ar  
    11     7    39 1   
    12     8     9 ar  
    13     8    40 1   
    14     9    10 1   
    15    10    11 2   
    16    10    12 1   
    17    12    13 1   
    18    12    41 1   
    19    13    14 1   
    20    13    17 1   
    21    13    42 1   
    22    14    15 1   
    23    14    16 1   
    24    14    43 1   
    25    15    44 1   
    26    15    45 1   
    27    15    46 1   
    28    16    47 1   
    29    16    48 1   
    30    16    49 1   
    31    17    18 2   
    32    17    19 1   
    33    19    20 1   
    34    19    23 1   
    35    20    21 1   
    36    20    50 1   
    37    20    51 1   
    38    21    22 1   
    39    21    52 1   
    40    21    53 1   
    41    22    23 1   
    42    22    54 1   
    43    22    55 1   
    44    23    24 1   
    45    23    56 1   
    46    24    25 2   
    47    24    26 1   
    48    26    27 1   
    49    26    57 1   
    50    27    28 1   
    51    27    31 1   
    52    27    58 1   
    53    28    29 1   
    54    28    30 1   
    55    28    59 1   
    56    29    60 1   
    57    29    61 1   
    58    29    62 1   
    59    30    63 1   
    60    30    64 1   
    61    30    65 1   
    62    31    32 2   
    63    31    33 1   
    64    33    34 1   
    65    33    35 1   
    66    33    36 1   
@<TRIPOS>SUBSTRUCTURE
     1 FRW         1 TEMP              0 ****  ****    0 ROOT
