@<TRIPOS>MOLECULE
FRW
   65    66     1     0     0
SMALL
No Charge or Current Charge


@<TRIPOS>ATOM
      1 O6          -9.1350     2.6690     0.8010 o          1 FRW      -0.715000
      2 C4          -7.9750     2.9520     0.5300 c          1 FRW       0.710600
      3 O5          -7.6030     4.1010     0.3380 o          1 FRW      -0.715000
      4 C3          -6.9540     1.8270     0.4280 ca         1 FRW      -0.106600
      5 C2          -7.3320     0.4820     0.6400 ca         1 FRW      -0.101000
      6 C1          -6.3890    -0.5560     0.5460 ca         1 FRW      -0.101000
      7 C7          -5.6020     2.0980     0.1180 ca         1 FRW      -0.101000
      8 C8          -4.6580     1.0610     0.0230 ca         1 FRW      -0.101000
      9 C9          -5.0380    -0.2860     0.2370 ca         1 FRW      -0.189600
     10 C10         -4.0470    -1.4310     0.1420 c          1 FRW       0.625700
     11 O11         -4.3770    -2.5980     0.3120 o          1 FRW      -0.636100
     12 N12         -2.7440    -1.0880    -0.1400 ns         1 FRW      -0.499900
     13 C13         -1.6150    -2.0350    -0.3040 c3         1 FRW       0.044700
     14 C14         -1.3820    -2.4120    -1.8030 c3         1 FRW      -0.062700
     15 C15         -2.5260    -3.2760    -2.3820 c3         1 FRW      -0.089600
     16 C16         -1.1080    -1.1780    -2.6990 c3         1 FRW      -0.089600
     17 C17         -0.3250    -1.4540     0.3660 c          1 FRW       0.598100
     18 O18         -0.2520    -0.2710     0.6890 o          1 FRW      -0.619100
     19 N19          0.7900    -2.3030     0.5520 n          1 FRW      -0.401800
     20 C23          0.6900    -3.7790     0.6310 c5         1 FRW       0.110000
     21 C22          1.9630    -4.1440     1.4370 c5         1 FRW      -0.096400
     22 C21          2.9730    -3.0830     0.9380 c5         1 FRW      -0.084400
     23 C20          2.1150    -1.7860     0.9970 c5         1 FRW       0.030700
     24 C24          2.7610    -0.7170     0.0580 c          1 FRW       0.606100
     25 O25          2.5030    -0.5040    -1.1200 o          1 FRW      -0.589100
     26 N26          3.7130    -0.0060     0.7610 ns         1 FRW      -0.492900
     27 C27          4.4830     1.1340     0.2160 c3         1 FRW       0.030700
     28 C28          3.6210     2.4380     0.1620 c3         1 FRW      -0.074700
     29 C29          3.0360     2.8600     1.5350 c3         1 FRW      -0.094600
     30 C30          4.3640     3.6180    -0.5070 c3         1 FRW      -0.094600
     31 C31          5.8220     1.2780     1.0000 c          1 FRW       0.514100
     32 O32          5.8400     1.3700     2.2250 o          1 FRW      -0.441100
     33 C33          7.1250     1.2110     0.1600 c3         1 FRW       0.198000
     34 F36          8.2250     1.4590     0.9110 f          1 FRW      -0.103667
     35 F34          7.2860    -0.0160    -0.3900 f          1 FRW      -0.103667
     36 F35          7.1230     2.1090    -0.8510 f          1 FRW      -0.103667
     37 H2          -8.3640     0.2340     0.8800 ha         1 FRW       0.131500
     38 H1          -6.7180    -1.5790     0.7160 ha         1 FRW       0.097000
     39 H7          -5.2760     3.1220    -0.0530 ha         1 FRW       0.131500
     40 H8          -3.6330     1.3270    -0.2210 ha         1 FRW       0.097000
     41 HN12        -2.5440    -0.0990    -0.2110 hn         1 FRW       0.338500
     42 H13         -1.8570    -2.9510     0.2480 h1         1 FRW       0.086700
     43 H14         -0.4820    -3.0340    -1.8520 hc         1 FRW       0.039700
     44 H15         -2.2730    -3.6250    -3.3910 hc         1 FRW       0.039367
     45 H15A        -2.7020    -4.1580    -1.7550 hc         1 FRW       0.039367
     46 H15B        -3.4600    -2.7050    -2.4460 hc         1 FRW       0.039367
     47 H16         -0.2580    -0.5980    -2.3220 hc         1 FRW       0.039367
     48 H16A        -0.8680    -1.4930    -3.7220 hc         1 FRW       0.039367
     49 H16B        -1.9820    -0.5180    -2.7450 hc         1 FRW       0.039367
     50 H23         -0.2190    -4.1190     1.1440 h1         1 FRW       0.057700
     51 H23A         0.7180    -4.2280    -0.3710 h1         1 FRW       0.057700
     52 H22          1.7880    -4.0460     2.5150 hc         1 FRW       0.056200
     53 H22A         2.2960    -5.1710     1.2510 hc         1 FRW       0.056200
     54 H21          3.8700    -3.0250     1.5640 hc         1 FRW       0.061700
     55 H21A         3.3010    -3.3060    -0.0850 hc         1 FRW       0.061700
     56 H20          2.0460    -1.3860     2.0180 h1         1 FRW       0.068700
     57 HN26         3.8460    -0.2590     1.7350 hn         1 FRW       0.327500
     58 H27          4.7570     0.8790    -0.8170 h1         1 FRW       0.097700
     59 H28          2.7610     2.2150    -0.4820 hc         1 FRW       0.079700
     60 H29          3.8280     3.1490     2.2350 hc         1 FRW       0.042867
     61 H29A         2.3650     3.7200     1.4160 hc         1 FRW       0.042867
     62 H29B         2.4540     2.0480     1.9860 hc         1 FRW       0.042867
     63 H30          4.7270     3.3350    -1.5030 hc         1 FRW       0.042867
     64 H30A         3.6920     4.4760    -0.6290 hc         1 FRW       0.042867
     65 H30B         5.2200     3.9430     0.0970 hc         1 FRW       0.042867
@<TRIPOS>BOND
     1     1     2 1   
     2     2     3 1   
     3     2     4 1   
     4     4     5 ar  
     5     4     7 ar  
     6     5     6 ar  
     7     5    37 1   
     8     6     9 ar  
     9     6    38 1   
    10     7     8 ar  
    11     7    39 1   
    12     8     9 ar  
    13     8    40 1   
    14     9    10 1   
    15    10    11 2   
    16    10    12 1   
    17    12    13 1   
    18    12    41 1   
    19    13    14 1   
    20    13    17 1   
    21    13    42 1   
    22    14    15 1   
    23    14    16 1   
    24    14    43 1   
    25    15    44 1   
    26    15    45 1   
    27    15    46 1   
    28    16    47 1   
    29    16    48 1   
    30    16    49 1   
    31    17    18 2   
    32    17    19 1   
    33    19    20 1   
    34    19    23 1   
    35    20    21 1   
    36    20    50 1   
    37    20    51 1   
    38    21    22 1   
    39    21    52 1   
    40    21    53 1   
    41    22    23 1   
    42    22    54 1   
    43    22    55 1   
    44    23    24 1   
    45    23    56 1   
    46    24    25 2   
    47    24    26 1   
    48    26    27 1   
    49    26    57 1   
    50    27    28 1   
    51    27    31 1   
    52    27    58 1   
    53    28    29 1   
    54    28    30 1   
    55    28    59 1   
    56    29    60 1   
    57    29    61 1   
    58    29    62 1   
    59    30    63 1   
    60    30    64 1   
    61    30    65 1   
    62    31    32 2   
    63    31    33 1   
    64    33    34 1   
    65    33    35 1   
    66    33    36 1   
@<TRIPOS>SUBSTRUCTURE
     1 FRW         1 TEMP              0 ****  ****    0 ROOT
