@<TRIPOS>MOLECULE
FRX
   49    52     1     0     0
SMALL
No Charge or Current Charge


@<TRIPOS>ATOM
      1 O26         -2.0350    -4.3440    -2.2130 o          1 FRX      -0.585100
      2 C22         -0.8800    -4.4360    -2.6100 c          1 FRX       0.579100
      3 N22         -0.5700    -4.4490    -3.9540 ns         1 FRX      -0.500900
      4 C24         -1.5610    -4.4150    -5.0420 c3         1 FRX       0.064000
      5 C25         -2.3370    -5.7460    -5.2100 c3         1 FRX       0.128600
      6 O25         -1.4350    -6.8370    -5.4690 oh         1 FRX      -0.652000
      7 C21          0.3350    -4.5330    -1.6710 c3         1 FRX       0.004000
      8 N17          0.0030    -4.5020    -0.2170 n          1 FRX      -0.198400
      9 C19         -0.3320    -5.7260     0.4170 c          1 FRX       0.569000
     10 O19         -0.4510    -6.7710    -0.2190 o          1 FRX      -0.537000
     11 C17          0.1070    -3.2560     0.5100 ca         1 FRX      -0.019000
     12 C31         -0.0840    -2.0130    -0.1390 ca         1 FRX      -0.142000
     13 C30         -0.1030    -0.8150     0.5930 ca         1 FRX      -0.083000
     14 C29          0.0180    -0.8430     1.9900 ca         1 FRX      -0.127000
     15 C16          0.1390    -3.2760     1.9230 ca         1 FRX      -0.113300
     16 C28          0.1260    -2.0730     2.6550 ca         1 FRX      -0.072000
     17 C15          0.2100    -4.6080     2.6600 c6         1 FRX      -0.043100
     18 C13         -0.6220    -5.6900     1.9420 c6         1 FRX       0.037700
     19 N11         -0.4900    -7.0150     2.6020 ns         1 FRX      -0.482900
     20 C11         -1.3310    -7.5190     3.5650 c          1 FRX       0.642700
     21 O13         -2.2750    -6.8790     4.0040 o          1 FRX      -0.623100
     22 C7          -1.0000    -8.8880     4.0230 cc         1 FRX      -0.228600
     23 N8          -1.6840    -9.6580     4.9990 na         1 FRX      -0.051000
     24 C3          -1.0200   -10.8670     5.0960 cc         1 FRX      -0.205000
     25 C4           0.0050   -10.8880     4.2640 cd         1 FRX      -0.140000
     26 C6           0.0630    -9.6710     3.5650 cd         1 FRX      -0.087000
     27 C5           0.7470   -12.0940     4.2970 cd         1 FRX      -0.047000
     28 S2          -1.2470   -12.3050     6.0540 ss         1 FRX       0.202000
     29 C1           0.1940   -12.9710     5.2230 cc         1 FRX      -0.018000
     30 Cl           0.7980   -14.5610     5.5750 cl         1 FRX      -0.149000
     31 HN22         0.4110    -4.5350    -4.1990 hn         1 FRX       0.315500
     32 H241        -1.0460    -4.1720    -5.9800 h1         1 FRX       0.058200
     33 H242        -2.2770    -3.6070    -4.8410 h1         1 FRX       0.058200
     34 H251        -3.0550    -5.6350    -6.0350 h1         1 FRX       0.058700
     35 H252        -2.9170    -5.9400    -4.2970 h1         1 FRX       0.058700
     36 HO25        -0.9610    -6.6320    -6.3050 ho         1 FRX       0.433000
     37 H211         0.8650    -5.4630    -1.9110 h1         1 FRX       0.082700
     38 H212         1.0200    -3.7130    -1.9140 h1         1 FRX       0.082700
     39 H31         -0.2170    -1.9580    -1.2160 ha         1 FRX       0.117000
     40 H30         -0.2240     0.1360     0.0780 ha         1 FRX       0.115000
     41 H29          0.0010     0.0840     2.5580 ha         1 FRX       0.119000
     42 H28          0.1860    -2.0910     3.7410 ha         1 FRX       0.119000
     43 H151         1.2590    -4.9280     2.7230 hc         1 FRX       0.069200
     44 H152        -0.1450    -4.4980     3.6940 hc         1 FRX       0.069200
     45 H13         -1.6760    -5.3800     1.9980 h1         1 FRX       0.107700
     46 HN11         0.2420    -7.6370     2.2850 hn         1 FRX       0.341500
     47 HN8         -2.5070    -9.3700     5.5240 hn         1 FRX       0.380000
     48 H6           0.8040    -9.4090     2.8160 ha         1 FRX       0.141000
     49 H5           1.6210   -12.3060     3.6910 ha         1 FRX       0.148000
@<TRIPOS>BOND
     1     1     2 2   
     2     2     3 1   
     3     2     7 1   
     4     3     4 1   
     5     3    31 1   
     6     4     5 1   
     7     4    32 1   
     8     4    33 1   
     9     5     6 1   
    10     5    34 1   
    11     5    35 1   
    12     6    36 1   
    13     7     8 1   
    14     7    37 1   
    15     7    38 1   
    16     8     9 1   
    17     8    11 1   
    18     9    10 2   
    19     9    18 1   
    20    11    12 ar  
    21    11    15 ar  
    22    12    13 ar  
    23    12    39 1   
    24    13    14 ar  
    25    13    40 1   
    26    14    16 ar  
    27    14    41 1   
    28    15    16 ar  
    29    15    17 1   
    30    16    42 1   
    31    17    18 1   
    32    17    43 1   
    33    17    44 1   
    34    18    19 1   
    35    18    45 1   
    36    19    20 1   
    37    19    46 1   
    38    20    21 2   
    39    20    22 1   
    40    22    23 1   
    41    22    26 2   
    42    23    24 1   
    43    23    47 1   
    44    24    25 2   
    45    24    28 1   
    46    25    26 1   
    47    25    27 1   
    48    26    48 1   
    49    27    29 2   
    50    27    49 1   
    51    28    29 1   
    52    29    30 1   
@<TRIPOS>SUBSTRUCTURE
     1 FRX         1 TEMP              0 ****  ****    0 ROOT
