@<TRIPOS>MOLECULE
FRX
   49    52     1     0     0
SMALL
abcg2


@<TRIPOS>ATOM
      1 O26         -1.9460    -4.9540    -1.9420 o          1 FRX      -0.585100
      2 C22         -0.8950    -4.6100    -2.4570 c          1 FRX       0.579100
      3 N22         -0.7760    -4.1880    -3.7210 ns         1 FRX      -0.500900
      4 C24         -1.8730    -4.1930    -4.6640 c3         1 FRX       0.064000
      5 C25         -2.0540    -5.5310    -5.3660 c3         1 FRX       0.128600
      6 O25         -0.9110    -5.9340    -6.0830 oh         1 FRX      -0.652000
      7 C21          0.4180    -4.6490    -1.6800 c3         1 FRX       0.004000
      8 N17          0.1840    -4.6630    -0.2580 n          1 FRX      -0.198400
      9 C19          0.0030    -5.8710     0.3470 c          1 FRX       0.569000
     10 O19          0.1560    -6.9250    -0.2370 o          1 FRX      -0.537000
     11 C17         -0.0150    -3.4430     0.4200 ca         1 FRX      -0.019000
     12 C31         -0.2990    -2.2670    -0.2680 ca         1 FRX      -0.142000
     13 C30         -0.4450    -1.0750     0.4280 ca         1 FRX      -0.083000
     14 C29         -0.3200    -1.0450     1.8080 ca         1 FRX      -0.127000
     15 C16          0.1160    -3.4210     1.8120 ca         1 FRX      -0.113300
     16 C28         -0.0470    -2.2230     2.4900 ca         1 FRX      -0.072000
     17 C15          0.4060    -4.7120     2.5090 c6         1 FRX      -0.043100
     18 C13         -0.3900    -5.8100     1.8140 c6         1 FRX       0.037700
     19 N11         -0.2250    -7.1100     2.4010 ns         1 FRX      -0.482900
     20 C11         -0.9260    -7.4950     3.4810 c          1 FRX       0.642700
     21 O13         -1.7250    -6.7660     4.0580 o          1 FRX      -0.623100
     22 C7          -0.6840    -8.8650     3.9530 cc         1 FRX      -0.228600
     23 N8          -1.3790    -9.3050     5.0550 na         1 FRX      -0.051000
     24 C3          -1.0090   -10.5710     5.3030 cc         1 FRX      -0.205000
     25 C4          -0.0650   -10.9770     4.3680 cd         1 FRX      -0.140000
     26 C6           0.1380    -9.8760     3.5030 cd         1 FRX      -0.087000
     27 C5           0.3610   -12.3230     4.5900 cd         1 FRX      -0.047000
     28 S2          -1.4030   -11.7790     6.4580 ss         1 FRX       0.202000
     29 C1          -0.2700   -12.8540     5.6610 cc         1 FRX      -0.018000
     30 CL          -0.0780   -14.4290     6.2950 cl         1 FRX      -0.149000
     31 HN22         0.1400    -3.9560    -4.0690 hn         1 FRX       0.315500
     32 H241        -1.6860    -3.4060    -5.3970 h1         1 FRX       0.058200
     33 H242        -2.7960    -3.9290    -4.1470 h1         1 FRX       0.058200
     34 H251        -2.9420    -5.4650    -6.0070 h1         1 FRX       0.058700
     35 H252        -2.2510    -6.3070    -4.6230 h1         1 FRX       0.058700
     36 HO25        -0.7730    -5.3110    -6.8030 ho         1 FRX       0.433000
     37 H211         0.9540    -5.5560    -1.9630 h1         1 FRX       0.082700
     38 H212         1.0680    -3.8120    -1.9370 h1         1 FRX       0.082700
     39 H31         -0.4120    -2.2530    -1.3430 ha         1 FRX       0.117000
     40 H30         -0.6670    -0.1690    -0.1200 ha         1 FRX       0.115000
     41 H29         -0.4400    -0.1170     2.3510 ha         1 FRX       0.119000
     42 H28          0.0450    -2.2160     3.5700 ha         1 FRX       0.119000
     43 H151         1.4750    -4.9470     2.4650 hc         1 FRX       0.069200
     44 H152         0.1280    -4.6530     3.5610 hc         1 FRX       0.069200
     45 H13         -1.4520    -5.5370     1.8490 h1         1 FRX       0.107700
     46 HN11         0.3880    -7.7610     1.9360 hn         1 FRX       0.341500
     47 HN8         -2.0490    -8.7520     5.5660 hn         1 FRX       0.380000
     48 H6           0.8070    -9.8360     2.6580 ha         1 FRX       0.141000
     49 H5           1.0860   -12.8600     3.9960 ha         1 FRX       0.148000
@<TRIPOS>BOND
     1     1     2 2   
     2     2     3 1   
     3     2     7 1   
     4     3     4 1   
     5     3    31 1   
     6     4     5 1   
     7     4    32 1   
     8     4    33 1   
     9     5     6 1   
    10     5    34 1   
    11     5    35 1   
    12     6    36 1   
    13     7     8 1   
    14     7    37 1   
    15     7    38 1   
    16     8     9 1   
    17     8    11 1   
    18     9    10 2   
    19     9    18 1   
    20    11    12 ar  
    21    11    15 ar  
    22    12    13 ar  
    23    12    39 1   
    24    13    14 ar  
    25    13    40 1   
    26    14    16 ar  
    27    14    41 1   
    28    15    16 ar  
    29    15    17 1   
    30    16    42 1   
    31    17    18 1   
    32    17    43 1   
    33    17    44 1   
    34    18    19 1   
    35    18    45 1   
    36    19    20 1   
    37    19    46 1   
    38    20    21 2   
    39    20    22 1   
    40    22    23 1   
    41    22    26 2   
    42    23    24 1   
    43    23    47 1   
    44    24    25 2   
    45    24    28 1   
    46    25    26 1   
    47    25    27 1   
    48    26    48 1   
    49    27    29 2   
    50    27    49 1   
    51    28    29 1   
    52    29    30 1   
@<TRIPOS>SUBSTRUCTURE
     1 FRX         1 TEMP              0 ****  ****    0 ROOT
