@<TRIPOS>MOLECULE
FRY
   42    45     1     0     0
SMALL
No Charge or Current Charge


@<TRIPOS>ATOM
      1 C1           0.2090   -13.0930     5.1400 c5         1 FRY       0.237500
      2 C7          -0.7950    -8.9760     3.8110 cc         1 FRY       0.243500
      3 C6          -1.4930    -9.7130     4.7590 cd         1 FRY      -0.072000
      4 C5          -0.8980   -12.0970     5.5170 c2         1 FRY      -0.108200
      5 C4          -0.8010   -10.9390     4.8360 cd         1 FRY      -0.116000
      6 C3           0.2350   -10.8320     3.9420 cd         1 FRY       0.397300
      7 C10         -1.2030    -7.5860     3.4180 c          1 FRY       0.525600
      8 C12         -0.5420    -5.6870     1.8420 c6         1 FRY       0.039700
      9 C16          0.1330    -3.1990     0.4770 ca         1 FRY      -0.016000
     10 C14          0.2780    -4.6130     2.5850 c6         1 FRY      -0.045100
     11 C15          0.1780    -3.2610     1.8890 ca         1 FRY      -0.113300
     12 C18         -0.2670    -5.6720     0.3130 c          1 FRY       0.569000
     13 O19         -0.3780    -6.6980    -0.3540 o          1 FRY      -0.530000
     14 O22         -2.0140    -4.2500    -2.2780 o          1 FRY      -0.581100
     15 C21         -0.8600    -4.3120    -2.6700 c          1 FRY       0.583100
     16 N23         -0.5960    -4.2970    -3.9970 nt         1 FRY      -0.613000
     17 N17          0.0430    -4.4240    -0.2860 n          1 FRY      -0.200400
     18 C24         -0.0840    -1.9410    -0.1330 ca         1 FRY      -0.143000
     19 C25         -0.1170    -0.7650     0.6360 ca         1 FRY      -0.084000
     20 C26          0.0170    -0.8330     2.0290 ca         1 FRY      -0.128000
     21 C27          0.1510    -2.0800     2.6570 ca         1 FRY      -0.073000
     22 N11         -0.3790    -7.0280     2.4620 ns         1 FRY      -0.478900
     23 O13         -2.1620    -6.9770     3.8790 o          1 FRY      -0.605100
     24 N8           0.3020    -9.6870     3.2920 nc         1 FRY      -0.620000
     25 S2           1.2770   -12.2270     3.8250 ss         1 FRY      -0.237300
     26 Cl           1.2420   -13.5700     6.5520 cl         1 FRY      -0.206000
     27 H1          -0.1890   -14.0220     4.7150 h2         1 FRY       0.122700
     28 H6          -2.3740    -9.4050     5.3110 ha         1 FRY       0.166000
     29 H5          -1.6740   -12.3060     6.2540 ha         1 FRY       0.224000
     30 H12         -1.6000    -5.3980     1.9180 h1         1 FRY       0.107700
     31 H141         1.3330    -4.9160     2.6290 hc         1 FRY       0.068200
     32 H142        -0.0700    -4.5390     3.6240 hc         1 FRY       0.068200
     33 H201         1.0300    -3.5650    -1.9680 h1         1 FRY       0.080200
     34 H202         0.9150    -5.3170    -2.0120 h1         1 FRY       0.080200
     35 H231        -1.3620    -4.2350    -4.6510 hn         1 FRY       0.315000
     36 H232         0.3570    -4.3480    -4.3290 hn         1 FRY       0.315000
     37 H24         -0.2270    -1.8560    -1.2060 ha         1 FRY       0.116000
     38 H25         -0.2580     0.1980     0.1500 ha         1 FRY       0.115000
     39 H26         -0.0110     0.0770     2.6250 ha         1 FRY       0.118000
     40 H27          0.2210    -2.1300     3.7410 ha         1 FRY       0.118000
     41 HN11         0.3690    -7.6320     2.1320 hn         1 FRY       0.358500
     42 C20          0.3650    -4.4070    -1.7430 c3         1 FRY       0.002000
@<TRIPOS>BOND
     1     1     4 1   
     2     1    25 1   
     3     1    26 1   
     4     1    27 1   
     5     2     3 2   
     6     2     7 1   
     7     2    24 1   
     8     3     5 1   
     9     3    28 1   
    10     4     5 2   
    11     4    29 1   
    12     5     6 1   
    13     6    24 2   
    14     6    25 1   
    15     7    22 1   
    16     7    23 2   
    17     8    10 1   
    18     8    12 1   
    19     8    22 1   
    20     8    30 1   
    21     9    11 ar  
    22     9    17 1   
    23     9    18 ar  
    24    10    11 1   
    25    10    31 1   
    26    10    32 1   
    27    11    21 ar  
    28    12    13 2   
    29    12    17 1   
    30    14    15 2   
    31    15    16 1   
    32    15    42 1   
    33    16    35 1   
    34    16    36 1   
    35    17    42 1   
    36    18    19 ar  
    37    18    37 1   
    38    19    20 ar  
    39    19    38 1   
    40    20    21 ar  
    41    20    39 1   
    42    21    40 1   
    43    22    41 1   
    44    33    42 1   
    45    34    42 1   
@<TRIPOS>SUBSTRUCTURE
     1 FRY         1 TEMP              0 ****  ****    0 ROOT
