@<TRIPOS>MOLECULE
FRY
   42    45     1     0     0
SMALL
bcc


@<TRIPOS>ATOM
      1 C1           0.0920   -12.9690     4.9680 c5         1 FRY       0.113000
      2 C7          -0.8340    -8.8410     3.8370 cc         1 FRY       0.308800
      3 C6          -1.4500    -9.4850     4.8580 cd         1 FRY      -0.155300
      4 C5          -0.8620   -11.9590     5.5200 c2         1 FRY      -0.058200
      5 C4          -0.8370   -10.7890     4.8780 cd         1 FRY      -0.181300
      6 C3           0.1350   -10.7360     3.7850 cd         1 FRY       0.462600
      7 C10         -1.1040    -7.4500     3.4060 c          1 FRY       0.592600
      8 C12         -0.4720    -5.7250     1.8100 c6         1 FRY       0.039700
      9 C16          0.0420    -3.3390     0.4830 ca         1 FRY       0.076600
     10 C14          0.3480    -4.6740     2.5500 c6         1 FRY      -0.045100
     11 C15          0.1330    -3.3550     1.8780 ca         1 FRY      -0.113300
     12 C18         -0.0580    -5.7640     0.3490 c          1 FRY       0.711500
     13 O19          0.0490    -6.8070    -0.2640 o          1 FRY      -0.605500
     14 O22         -1.8940    -4.6490    -1.9690 o          1 FRY      -0.581100
     15 C21         -0.8040    -4.4000    -2.4530 c          1 FRY       0.650100
     16 N23         -0.6090    -4.0290    -3.7230 nt         1 FRY      -0.680000
     17 N17          0.2000    -4.5510    -0.2190 n          1 FRY      -0.360000
     18 C24         -0.1630    -2.1340    -0.1820 ca         1 FRY      -0.161000
     19 C25         -0.2700    -0.9520     0.5390 ca         1 FRY      -0.102000
     20 C26         -0.1860    -0.9610     1.9220 ca         1 FRY      -0.146000
     21 C27          0.0090    -2.1680     2.5820 ca         1 FRY      -0.091000
     22 N11         -0.3560    -7.0400     2.3700 ns         1 FRY      -0.545900
     23 O13         -1.9430    -6.7590     3.9670 o          1 FRY      -0.605100
     24 N8           0.1440    -9.6140     3.1670 nc         1 FRY      -0.620000
     25 S2           1.0230   -12.2060     3.5890 ss         1 FRY      -0.189400
     26 CL           1.2050   -13.5230     6.2510 cl         1 FRY      -0.129400
     27 H1          -0.4290   -13.8520     4.5950 h2         1 FRY       0.122700
     28 H6          -2.2210    -9.1090     5.5090 ha         1 FRY       0.184000
     29 H5          -1.4930   -12.2290     6.3560 ha         1 FRY       0.174000
     30 H12         -1.5260    -5.4220     1.8390 h1         1 FRY       0.107700
     31 H141         1.4070    -4.9520     2.5300 hc         1 FRY       0.068200
     32 H142         0.0430    -4.6280     3.5950 hc         1 FRY       0.068200
     33 H201         1.1700    -3.7040    -1.8510 h1         1 FRY       0.080200
     34 H202         0.9830    -5.4390    -1.9200 h1         1 FRY       0.080200
     35 H231        -1.3830    -3.9670    -4.3640 hn         1 FRY       0.315000
     36 H232         0.3070    -3.8240    -4.0850 hn         1 FRY       0.315000
     37 H24         -0.2400    -2.0860    -1.2600 ha         1 FRY       0.134000
     38 H25         -0.4300    -0.0240     0.0070 ha         1 FRY       0.133000
     39 H26         -0.2760    -0.0420     2.4850 ha         1 FRY       0.136000
     40 H27          0.0700    -2.1920     3.6630 ha         1 FRY       0.136000
     41 HN11         0.3030    -7.6910     1.9680 hn         1 FRY       0.358500
     42 C20          0.4770    -4.5170    -1.6330 c3         1 FRY       0.002000
@<TRIPOS>BOND
     1     1     4 1   
     2     1    25 1   
     3     1    26 1   
     4     1    27 1   
     5     2     3 2   
     6     2     7 1   
     7     2    24 1   
     8     3     5 1   
     9     3    28 1   
    10     4     5 2   
    11     4    29 1   
    12     5     6 1   
    13     6    24 2   
    14     6    25 1   
    15     7    22 1   
    16     7    23 2   
    17     8    10 1   
    18     8    12 1   
    19     8    22 1   
    20     8    30 1   
    21     9    11 ar  
    22     9    17 1   
    23     9    18 ar  
    24    10    11 1   
    25    10    31 1   
    26    10    32 1   
    27    11    21 ar  
    28    12    13 2   
    29    12    17 1   
    30    14    15 2   
    31    15    16 1   
    32    15    42 1   
    33    16    35 1   
    34    16    36 1   
    35    17    42 1   
    36    18    19 ar  
    37    18    37 1   
    38    19    20 ar  
    39    19    38 1   
    40    20    21 ar  
    41    20    39 1   
    42    21    40 1   
    43    22    41 1   
    44    33    42 1   
    45    34    42 1   
@<TRIPOS>SUBSTRUCTURE
     1 FRY         1 TEMP              0 ****  ****    0 ROOT
