@<TRIPOS>MOLECULE
FRZ
   38    42     1     0     0
SMALL
bcc


@<TRIPOS>ATOM
      1 C1          -3.1140    -3.9570     0.1570 cc         1 FRZ      -0.179000
      2 C2          -3.5710    -2.6900    -0.0010 cd         1 FRZ      -0.040300
      3 N3          -2.6800    -1.6630     0.0080 na         1 FRZ       0.227000
      4 C4          -1.3260    -1.8450     0.1600 cd         1 FRZ      -0.024300
      5 C5          -0.8430    -3.1590     0.3380 cd         1 FRZ      -0.120000
      6 C6          -1.7270    -4.1970     0.3340 cc         1 FRZ      -0.103000
      7 N7          -3.0160    -0.3830    -0.1280 nd         1 FRZ      -0.581100
      8 C8          -1.8710     0.2890    -0.0610 cc         1 FRZ       0.473200
      9 C9          -0.7700    -0.5670     0.1210 cc         1 FRZ      -0.357400
     10 C10          0.6410    -0.2330     0.3040 ca         1 FRZ       0.397100
     11 C11         -1.8870     1.7500    -0.2030 ca         1 FRZ      -0.097900
     12 C12         -0.8690     2.4170    -0.8850 ca         1 FRZ      -0.095500
     13 C13         -0.9090     3.7950    -1.0360 ca         1 FRZ      -0.134500
     14 C14         -1.9670     4.5270    -0.5110 ca         1 FRZ      -0.118000
     15 C15         -2.9880     3.8690     0.1630 ca         1 FRZ      -0.134500
     16 C16         -2.9500     2.4910     0.3130 ca         1 FRZ      -0.095500
     17 C22          1.6400    -0.8760    -0.4260 ca         1 FRZ      -0.111300
     18 C23          2.9320    -0.4820    -0.1570 ca         1 FRZ      -0.325200
     19 C24          3.0980     0.5300     0.8050 ca         1 FRZ       0.398800
     20 N25          2.1130     1.1220     1.4700 nb         1 FRZ      -0.328000
     21 N26          0.9030     0.7220     1.2150 nb         1 FRZ      -0.259000
     22 C27          4.2660    -0.7800    -0.5880 cc         1 FRZ       0.559800
     23 N28          5.1190    -0.0240     0.0530 nd         1 FRZ      -0.560100
     24 N29          4.4150     0.7610     0.9010 na         1 FRZ      -0.118800
     25 N30          4.6350    -1.7530    -1.4770 nv         1 FRZ      -0.857800
     26 H1          -3.8200    -4.7740     0.1490 ha         1 FRZ       0.153000
     27 H2          -4.6080    -2.4210    -0.1330 h4         1 FRZ       0.180000
     28 H5           0.2170    -3.3230     0.4770 ha         1 FRZ       0.154000
     29 H6          -1.3750    -5.2100     0.4690 ha         1 FRZ       0.143000
     30 H12         -0.0490     1.8610    -1.3190 ha         1 FRZ       0.135000
     31 H13         -0.1150     4.2980    -1.5720 ha         1 FRZ       0.129500
     32 H14         -1.9960     5.6020    -0.6290 ha         1 FRZ       0.129000
     33 H15         -3.8170     4.4300     0.5750 ha         1 FRZ       0.129500
     34 H16         -3.7480     1.9850     0.8420 ha         1 FRZ       0.135000
     35 H22          1.3960    -1.6230    -1.1710 ha         1 FRZ       0.152000
     36 H29          4.8920     1.4290     1.4830 hn         1 FRZ       0.344700
     37 H301         5.5740    -1.6590    -1.8330 hn         1 FRZ       0.401300
     38 H302         3.9760    -1.9130    -2.2240 hn         1 FRZ       0.401300
@<TRIPOS>BOND
     1     1     2 2   
     2     1     6 1   
     3     1    26 1   
     4     2     3 1   
     5     2    27 1   
     6     3     4 1   
     7     3     7 1   
     8     4     5 1   
     9     4     9 2   
    10     5     6 2   
    11     5    28 1   
    12     6    29 1   
    13     7     8 2   
    14     8     9 1   
    15     8    11 1   
    16     9    10 1   
    17    10    17 ar  
    18    10    21 ar  
    19    11    12 ar  
    20    11    16 ar  
    21    12    13 ar  
    22    12    30 1   
    23    13    14 ar  
    24    13    31 1   
    25    14    15 ar  
    26    14    32 1   
    27    15    16 ar  
    28    15    33 1   
    29    16    34 1   
    30    17    18 ar  
    31    17    35 1   
    32    18    19 ar  
    33    18    22 1   
    34    19    20 ar  
    35    19    24 1   
    36    20    21 ar  
    37    22    23 2   
    38    22    25 1   
    39    23    24 1   
    40    24    36 1   
    41    25    37 1   
    42    25    38 1   
@<TRIPOS>SUBSTRUCTURE
     1 FRZ         1 TEMP              0 ****  ****    0 ROOT
