@<TRIPOS>MOLECULE
FRZ
   38    42     1     0     0
SMALL
No Charge or Current Charge


@<TRIPOS>ATOM
      1 C1          -2.8870    -3.9560     0.2390 cc         1 FRZ      -0.161000
      2 C2          -3.5210    -2.7230     0.0880 cd         1 FRZ      -0.073000
      3 N3          -2.6580    -1.6270     0.0200 na         1 FRZ       0.328400
      4 C4          -1.2930    -1.7690     0.0930 cd         1 FRZ      -0.075000
      5 C5          -0.6190    -3.0150     0.2770 cd         1 FRZ      -0.102000
      6 C6          -1.4530    -4.1110     0.3380 cc         1 FRZ      -0.085000
      7 N7          -3.1150    -0.3340    -0.0430 nd         1 FRZ      -0.581100
      8 C8          -1.9700     0.3510    -0.0250 cc         1 FRZ       0.473200
      9 C9          -0.8130    -0.4930     0.0230 cc         1 FRZ      -0.357400
     10 C10          0.5970    -0.1820     0.2360 ca         1 FRZ       0.331800
     11 C11         -1.9830     1.8250    -0.1690 ca         1 FRZ      -0.097900
     12 C12         -0.8620     2.5430    -0.6530 ca         1 FRZ      -0.077500
     13 C13         -0.9140     3.9380    -0.8190 ca         1 FRZ      -0.116500
     14 C14         -2.0900     4.6420    -0.5250 ca         1 FRZ      -0.100000
     15 C15         -3.2220     3.9450    -0.0800 ca         1 FRZ      -0.116500
     16 C16         -3.1730     2.5500     0.0840 ca         1 FRZ      -0.077500
     17 C22          1.6190    -0.8550    -0.4760 ca         1 FRZ      -0.028000
     18 C23          2.9380    -0.5170    -0.1300 ca         1 FRZ      -0.259900
     19 C24          3.1950     0.3920     0.8560 ca         1 FRZ       0.333500
     20 N25          2.1980     0.9990     1.5360 nb         1 FRZ      -0.328000
     21 N26          0.9080     0.7060     1.2260 nb         1 FRZ      -0.259000
     22 C27          4.2160    -0.9450    -0.5960 cc         1 FRZ       0.559800
     23 N28          5.2350    -0.3720     0.0220 nd         1 FRZ      -0.560100
     24 N29          4.5740     0.4700     0.9370 na         1 FRZ      -0.169100
     25 N30          4.4150    -1.8340    -1.5780 nv         1 FRZ      -0.968200
     26 H1          -3.4920    -4.8560     0.2980 ha         1 FRZ       0.135000
     27 H2          -4.5870    -2.5460     0.0250 h4         1 FRZ       0.162000
     28 H5           0.4570    -3.1110     0.3720 ha         1 FRZ       0.136000
     29 H6          -1.0410    -5.1070     0.4690 ha         1 FRZ       0.125000
     30 H12          0.0500     2.0320    -0.9390 ha         1 FRZ       0.117000
     31 H13         -0.0410     4.4720    -1.1880 ha         1 FRZ       0.111500
     32 H14         -2.1290     5.7220    -0.6550 ha         1 FRZ       0.111000
     33 H15         -4.1420     4.4850     0.1360 ha         1 FRZ       0.111500
     34 H16         -4.0680     2.0370     0.4300 ha         1 FRZ       0.117000
     35 H22          1.3890    -1.5770    -1.2550 ha         1 FRZ       0.134000
     36 H29          5.0820     1.0670     1.5860 hn         1 FRZ       0.395000
     37 H301         5.3520    -1.8790    -1.9620 hn         1 FRZ       0.456500
     38 H302         3.6500    -2.0190    -2.2150 hn         1 FRZ       0.456500
@<TRIPOS>BOND
     1     1     2 2   
     2     1     6 1   
     3     1    26 1   
     4     2     3 1   
     5     2    27 1   
     6     3     4 1   
     7     3     7 1   
     8     4     5 1   
     9     4     9 2   
    10     5     6 2   
    11     5    28 1   
    12     6    29 1   
    13     7     8 2   
    14     8     9 1   
    15     8    11 1   
    16     9    10 1   
    17    10    17 ar  
    18    10    21 ar  
    19    11    12 ar  
    20    11    16 ar  
    21    12    13 ar  
    22    12    30 1   
    23    13    14 ar  
    24    13    31 1   
    25    14    15 ar  
    26    14    32 1   
    27    15    16 ar  
    28    15    33 1   
    29    16    34 1   
    30    17    18 ar  
    31    17    35 1   
    32    18    19 ar  
    33    18    22 1   
    34    19    20 ar  
    35    19    24 1   
    36    20    21 ar  
    37    22    23 2   
    38    22    25 1   
    39    23    24 1   
    40    24    36 1   
    41    25    37 1   
    42    25    38 1   
@<TRIPOS>SUBSTRUCTURE
     1 FRZ         1 TEMP              0 ****  ****    0 ROOT
