@<TRIPOS>MOLECULE
FS6
   41    42     1     0     0
SMALL
No Charge or Current Charge


@<TRIPOS>ATOM
      1 C01        -36.0460    42.1530    -4.4710 c3         1 FS6      -0.089100
      2 C02        -36.1580    40.8750    -5.3320 c3         1 FS6      -0.015100
      3 C03        -35.8360    39.6060    -4.5670 cc         1 FS6      -0.061300
      4 C04        -36.7000    38.8430    -3.7970 cd         1 FS6      -0.225500
      5 C06        -34.6930    37.7790    -3.7640 cd         1 FS6      -0.062300
      6 C07        -33.7050    36.7000    -3.3850 c3         1 FS6      -0.034800
      7 C08        -34.5540    38.9290    -4.5270 cc         1 FS6      -0.260600
      8 C09        -33.2250    39.2990    -5.1550 c          1 FS6       0.608700
      9 C11        -33.0200    40.5780    -5.9680 c3         1 FS6      -0.187100
     10 C12        -38.0950    39.0310    -3.4400 cd         1 FS6       0.376500
     11 C13        -38.8520    40.1330    -3.7780 cc         1 FS6      -0.253000
     12 C15        -40.0040    38.4590    -2.4700 cc         1 FS6       0.455700
     13 C16        -40.9870    37.6370    -1.6910 c3         1 FS6      -0.155700
     14 C17        -41.7610    36.6560    -2.5920 c3         1 FS6       0.163800
     15 C19        -42.3140    34.8990    -0.8720 c3         1 FS6       0.146100
     16 N05        -36.0100    37.7320    -3.3330 na         1 FS6      -0.087000
     17 N18        -42.7940    35.9210    -1.8280 n7         1 FS6      -0.865400
     18 N20        -38.7550    38.0750    -2.6820 nd         1 FS6      -0.676000
     19 O10        -32.2410    38.5800    -5.0280 o          1 FS6      -0.570100
     20 S14        -40.4720    39.9890    -3.1600 ss         1 FS6      -0.041400
     21 H1         -36.2920    43.0390    -5.0670 hc         1 FS6       0.035367
     22 H2         -36.7300    42.1130    -3.6150 hc         1 FS6       0.035367
     23 H3         -35.0330    42.2760    -4.0740 hc         1 FS6       0.035367
     24 H4         -37.1580    40.8030    -5.7670 hc         1 FS6       0.046700
     25 H5         -35.5430    40.9810    -6.2250 hc         1 FS6       0.046700
     26 H6         -32.8610    37.1160    -2.8220 hc         1 FS6       0.058700
     27 H7         -34.1700    35.9310    -2.7550 hc         1 FS6       0.058700
     28 H8         -33.3080    36.1960    -4.2740 hc         1 FS6       0.058700
     29 H9         -31.9610    40.7560    -6.1900 hc         1 FS6       0.057367
     30 H10        -33.5760    40.4900    -6.9060 hc         1 FS6       0.057367
     31 H11        -33.4610    41.4350    -5.4560 hc         1 FS6       0.057367
     32 H12        -38.6010    41.0270    -4.3180 h4         1 FS6       0.168000
     33 H13        -40.4540    37.0850    -0.9090 hc         1 FS6       0.062700
     34 H14        -41.6940    38.3030    -1.1830 hc         1 FS6       0.062700
     35 H15        -42.2360    37.2310    -3.4000 h1         1 FS6       0.061200
     36 H16        -41.0540    35.9590    -3.0660 h1         1 FS6       0.061200
     37 H17        -43.1620    34.3640    -0.4240 h1         1 FS6       0.032033
     38 H18        -41.6760    34.1600    -1.3760 h1         1 FS6       0.032033
     39 H19        -41.7360    35.3550    -0.0570 h1         1 FS6       0.032033
     40 H20        -36.4160    37.0050    -2.7500 hn         1 FS6       0.365000
     41 H21        -43.3800    36.6000    -1.3230 hn         1 FS6       0.410000
@<TRIPOS>BOND
     1     1     2 1   
     2     1    21 1   
     3     1    22 1   
     4     1    23 1   
     5     2     3 1   
     6     2    24 1   
     7     2    25 1   
     8     3     4 2   
     9     3     7 1   
    10     4    10 1   
    11     4    16 1   
    12     5     6 1   
    13     5     7 2   
    14     5    16 1   
    15     6    26 1   
    16     6    27 1   
    17     6    28 1   
    18     7     8 1   
    19     8     9 1   
    20     8    19 2   
    21     9    29 1   
    22     9    30 1   
    23     9    31 1   
    24    10    11 2   
    25    10    18 1   
    26    11    20 1   
    27    11    32 1   
    28    12    13 1   
    29    12    18 2   
    30    12    20 1   
    31    13    14 1   
    32    13    33 1   
    33    13    34 1   
    34    14    17 1   
    35    14    35 1   
    36    14    36 1   
    37    15    17 1   
    38    15    37 1   
    39    15    38 1   
    40    15    39 1   
    41    16    40 1   
    42    17    41 1   
@<TRIPOS>SUBSTRUCTURE
     1 FS6         1 TEMP              0 ****  ****    0 ROOT
