@<TRIPOS>MOLECULE
FS6
   41    42     1     0     0
SMALL
abcg2


@<TRIPOS>ATOM
      1 C01        -35.8670    42.2040    -4.5680 c3         1 FS6      -0.089100
      2 C02        -36.2150    40.9040    -5.3060 c3         1 FS6      -0.015100
      3 C03        -35.8710    39.6720    -4.5240 cc         1 FS6      -0.061300
      4 C04        -36.7400    39.0390    -3.6540 cd         1 FS6      -0.225500
      5 C06        -34.8100    37.8720    -3.5710 cd         1 FS6      -0.062300
      6 C07        -33.9040    36.7820    -3.1200 c3         1 FS6      -0.034800
      7 C08        -34.6260    38.9350    -4.4730 cc         1 FS6      -0.260600
      8 C09        -33.3670    39.1420    -5.1780 c          1 FS6       0.608700
      9 C11        -33.2570    40.1900    -6.2610 c3         1 FS6      -0.187100
     10 C12        -38.1140    39.2790    -3.2560 cd         1 FS6       0.376500
     11 C13        -38.8750    40.4060    -3.4390 cc         1 FS6      -0.253000
     12 C15        -39.9920    38.5770    -2.2660 cc         1 FS6       0.455700
     13 C16        -40.9610    37.6470    -1.6190 c3         1 FS6      -0.155700
     14 C17        -41.6380    36.7240    -2.6620 c3         1 FS6       0.163800
     15 C19        -42.0180    34.7580    -1.2380 c3         1 FS6       0.146100
     16 N05        -36.0690    37.9570    -3.1080 na         1 FS6      -0.087000
     17 N18        -42.5920    35.7670    -2.1240 n7         1 FS6      -0.865400
     18 N20        -38.7710    38.2590    -2.5840 nd         1 FS6      -0.676000
     19 O10        -32.3740    38.4580    -4.9170 o          1 FS6      -0.570100
     20 S14        -40.4440    40.1760    -2.7740 ss         1 FS6      -0.041400
     21 H1         -36.1480    43.0750    -5.1640 hc         1 FS6       0.035367
     22 H2         -36.3890    42.2610    -3.6120 hc         1 FS6       0.035367
     23 H3         -34.7960    42.2630    -4.3620 hc         1 FS6       0.035367
     24 H4         -37.2840    40.8910    -5.5240 hc         1 FS6       0.046700
     25 H5         -35.7170    40.8940    -6.2740 hc         1 FS6       0.046700
     26 H6         -33.0510    37.1840    -2.5710 hc         1 FS6       0.058700
     27 H7         -34.4430    36.0880    -2.4730 hc         1 FS6       0.058700
     28 H8         -33.4990    36.2330    -3.9710 hc         1 FS6       0.058700
     29 H9         -32.2400    40.1850    -6.6500 hc         1 FS6       0.057367
     30 H10        -33.9550    39.9780    -7.0730 hc         1 FS6       0.057367
     31 H11        -33.4900    41.1830    -5.8770 hc         1 FS6       0.057367
     32 H12        -38.6010    41.3470    -3.8810 h4         1 FS6       0.168000
     33 H13        -40.4170    37.0480    -0.8870 hc         1 FS6       0.062700
     34 H14        -41.7320    38.2110    -1.0900 hc         1 FS6       0.062700
     35 H15        -42.1530    37.3500    -3.3940 h1         1 FS6       0.061200
     36 H16        -40.8600    36.1720    -3.1960 h1         1 FS6       0.061200
     37 H17        -42.8000    34.0620    -0.9310 h1         1 FS6       0.032033
     38 H18        -41.2580    34.1940    -1.7830 h1         1 FS6       0.032033
     39 H19        -41.5490    35.1620    -0.3310 h1         1 FS6       0.032033
     40 H20        -36.4980    37.3120    -2.4620 hn         1 FS6       0.365000
     41 H21        -43.3410    36.2580    -1.6480 hn         1 FS6       0.410000
@<TRIPOS>BOND
     1     1     2 1   
     2     1    21 1   
     3     1    22 1   
     4     1    23 1   
     5     2     3 1   
     6     2    24 1   
     7     2    25 1   
     8     3     4 2   
     9     3     7 1   
    10     4    10 1   
    11     4    16 1   
    12     5     6 1   
    13     5     7 2   
    14     5    16 1   
    15     6    26 1   
    16     6    27 1   
    17     6    28 1   
    18     7     8 1   
    19     8     9 1   
    20     8    19 2   
    21     9    29 1   
    22     9    30 1   
    23     9    31 1   
    24    10    11 2   
    25    10    18 1   
    26    11    20 1   
    27    11    32 1   
    28    12    13 1   
    29    12    18 2   
    30    12    20 1   
    31    13    14 1   
    32    13    33 1   
    33    13    34 1   
    34    14    17 1   
    35    14    35 1   
    36    14    36 1   
    37    15    17 1   
    38    15    37 1   
    39    15    38 1   
    40    15    39 1   
    41    16    40 1   
    42    17    41 1   
@<TRIPOS>SUBSTRUCTURE
     1 FS6         1 TEMP              0 ****  ****    0 ROOT
