@<TRIPOS>MOLECULE
FS7
   58    61     1     0     0
SMALL
abcg2


@<TRIPOS>ATOM
      1 N01          5.6410    -1.4280    -0.7540 nb         1 FS7      -0.662000
      2 C02          4.5570    -2.0910    -0.3010 ca         1 FS7       0.272000
      3 C03          4.5450    -3.5010    -0.3950 ca         1 FS7      -0.079000
      4 C04          3.4700    -4.2160     0.0570 ca         1 FS7      -0.102000
      5 C05          2.3650    -3.5500     0.6250 ca         1 FS7      -0.100000
      6 C06          2.3490    -2.1860     0.7270 ca         1 FS7      -0.088000
      7 C07          3.4450    -1.4210     0.2640 ca         1 FS7      -0.046000
      8 C08          3.5300    -0.0090     0.3410 ca         1 FS7      -0.082600
      9 C09          2.4270     0.7650     0.9890 c          1 FS7       0.608700
     10 O10          2.5420     1.3390     2.0390 o          1 FS7      -0.474000
     11 O11          1.3230     0.7310     0.2590 os         1 FS7      -0.407100
     12 C12          0.1570     1.3890     0.7490 c3         1 FS7       0.085300
     13 C13          0.1450     2.8490     0.3230 c3         1 FS7      -0.115100
     14 C14         -1.0190     0.6310     0.1400 c          1 FS7       0.605100
     15 O15         -0.9110    -0.0490    -0.8550 o          1 FS7      -0.526100
     16 N16         -2.1770     0.8460     0.8190 ns         1 FS7      -0.153000
     17 C17         -3.4630     0.4120     0.5160 ca         1 FS7       0.037000
     18 C18         -3.7650    -0.5120    -0.4840 ca         1 FS7      -0.178500
     19 C19         -5.0820    -0.8910    -0.6980 ca         1 FS7       0.023500
     20 C20         -6.0970    -0.3560     0.0770 ca         1 FS7      -0.308500
     21 S21         -7.7780    -0.7840    -0.2410 sy         1 FS7       1.135600
     22 O22         -8.5620     0.4290    -0.4290 o          1 FS7      -0.545000
     23 O23         -7.7940    -1.7810    -1.3030 o          1 FS7      -0.545000
     24 N24         -8.2410    -1.3900     1.2220 n8         1 FS7      -1.011100
     25 C25         -5.8080     0.5690     1.0750 ca         1 FS7       0.023500
     26 C26         -4.5010     0.9420     1.2940 ca         1 FS7      -0.178500
     27 C27          4.6340     0.6600    -0.1270 ca         1 FS7      -0.067300
     28 C28          4.7470     2.1620    -0.0510 c6         1 FS7      -0.034100
     29 C29          5.8080     2.7520    -0.9750 c6         1 FS7      -0.062700
     30 C30          5.9920     4.2370    -0.7020 c3         1 FS7      -0.087100
     31 C31          7.1050     1.9730    -0.8070 c6         1 FS7      -0.073400
     32 C32          6.9180     0.5310    -1.2510 c6         1 FS7      -0.131700
     33 C33          5.6880    -0.1230    -0.6830 ca         1 FS7       0.373300
     34 H1           5.4050    -3.9930    -0.8320 ha         1 FS7       0.132000
     35 H2           3.4650    -5.2950    -0.0180 ha         1 FS7       0.118000
     36 H3           1.5200    -4.1240     0.9840 ha         1 FS7       0.117000
     37 H4           1.4870    -1.7050     1.1680 ha         1 FS7       0.116000
     38 H5           0.1170     1.3150     1.8400 h1         1 FS7       0.074700
     39 H6          -0.7610     3.3410     0.6770 hc         1 FS7       0.058033
     40 H7           0.9940     3.3800     0.7520 hc         1 FS7       0.058033
     41 H8           0.1830     2.9410    -0.7620 hc         1 FS7       0.058033
     42 H9          -2.1120     1.4250     1.6440 hn         1 FS7       0.156000
     43 H10         -2.9940    -0.9480    -1.0970 ha         1 FS7       0.134000
     44 H11         -5.2960    -1.6110    -1.4750 ha         1 FS7       0.139000
     45 H12         -7.8770    -2.3210     1.3990 hn         1 FS7       0.474500
     46 H13         -9.2510    -1.3770     1.3300 hn         1 FS7       0.474500
     47 H14         -6.5900     0.9920     1.6910 ha         1 FS7       0.139000
     48 H15         -4.2780     1.6590     2.0750 ha         1 FS7       0.134000
     49 H16          3.7810     2.6230    -0.2730 hc         1 FS7       0.059200
     50 H17          4.9890     2.4430     0.9810 hc         1 FS7       0.059200
     51 H18          5.4710     2.6310    -2.0120 hc         1 FS7       0.053700
     52 H19          6.7390     4.6670    -1.3700 hc         1 FS7       0.036033
     53 H20          5.0620     4.7900    -0.8430 hc         1 FS7       0.036033
     54 H21          6.3270     4.4070     0.3240 hc         1 FS7       0.036033
     55 H22          7.9060     2.4310    -1.3900 hc         1 FS7       0.048200
     56 H23          7.4200     2.0110     0.2410 hc         1 FS7       0.048200
     57 H24          6.8350     0.4980    -2.3430 hc         1 FS7       0.065700
     58 H25          7.7850    -0.0790    -0.9960 hc         1 FS7       0.065700
@<TRIPOS>BOND
     1     1     2 ar  
     2     1    33 ar  
     3     2     3 ar  
     4     2     7 ar  
     5     3     4 ar  
     6     3    34 1   
     7     4     5 ar  
     8     4    35 1   
     9     5     6 ar  
    10     5    36 1   
    11     6     7 ar  
    12     6    37 1   
    13     7     8 ar  
    14     8     9 1   
    15     8    27 ar  
    16     9    10 2   
    17     9    11 1   
    18    11    12 1   
    19    12    13 1   
    20    12    14 1   
    21    12    38 1   
    22    13    39 1   
    23    13    40 1   
    24    13    41 1   
    25    14    15 2   
    26    14    16 1   
    27    16    17 1   
    28    16    42 1   
    29    17    18 ar  
    30    17    26 ar  
    31    18    19 ar  
    32    18    43 1   
    33    19    20 ar  
    34    19    44 1   
    35    20    21 1   
    36    20    25 ar  
    37    21    22 2   
    38    21    23 2   
    39    21    24 1   
    40    24    45 1   
    41    24    46 1   
    42    25    26 ar  
    43    25    47 1   
    44    26    48 1   
    45    27    28 1   
    46    27    33 ar  
    47    28    29 1   
    48    28    49 1   
    49    28    50 1   
    50    29    30 1   
    51    29    31 1   
    52    29    51 1   
    53    30    52 1   
    54    30    53 1   
    55    30    54 1   
    56    31    32 1   
    57    31    55 1   
    58    31    56 1   
    59    32    33 1   
    60    32    57 1   
    61    32    58 1   
@<TRIPOS>SUBSTRUCTURE
     1 FS7         1 TEMP              0 ****  ****    0 ROOT
