@<TRIPOS>MOLECULE
FS7
   58    61     1     0     0
SMALL
No Charge or Current Charge


@<TRIPOS>ATOM
      1 N01          5.8560    -1.4590    -0.6690 nb         1 FS7      -0.662000
      2 C02          4.8070    -2.1430    -0.1630 ca         1 FS7       0.272000
      3 C03          4.8370    -3.5500    -0.1870 ca         1 FS7      -0.079000
      4 C04          3.7780    -4.3080     0.3380 ca         1 FS7      -0.102000
      5 C05          2.6700    -3.6600     0.9020 ca         1 FS7      -0.100000
      6 C06          2.6190    -2.2580     0.9360 ca         1 FS7      -0.088000
      7 C07          3.6780    -1.4870     0.4000 ca         1 FS7      -0.046000
      8 C08          3.6480    -0.0680     0.4230 ca         1 FS7      -0.082600
      9 C09          2.4820     0.6860     1.0010 c          1 FS7       0.608700
     10 O10          2.5630     1.3530     2.0230 o          1 FS7      -0.474000
     11 O11          1.3280     0.5180     0.2740 os         1 FS7      -0.407100
     12 C12          0.1270     1.2380     0.6580 c3         1 FS7       0.085300
     13 C13          0.2920     2.7060     0.1850 c3         1 FS7      -0.115100
     14 C14         -1.1410     0.5870     0.0370 c          1 FS7       0.605100
     15 O15         -1.0910    -0.1700    -0.9280 o          1 FS7      -0.526100
     16 N16         -2.3120     0.8850     0.7240 ns         1 FS7      -0.153000
     17 C17         -3.6670     0.5160     0.5060 ca         1 FS7       0.037000
     18 C18         -4.1210    -0.1400    -0.6590 ca         1 FS7      -0.178500
     19 C19         -5.4790    -0.4700    -0.8100 ca         1 FS7       0.023500
     20 C20         -6.4020    -0.1410     0.2000 ca         1 FS7      -0.308500
     21 S21         -8.1340    -0.5590     0.0080 sy         1 FS7       1.135600
     22 O22         -8.9700     0.2550     0.8870 o          1 FS7      -0.545000
     23 O23         -8.4660    -0.7840    -1.3970 o          1 FS7      -0.545000
     24 N24         -8.2240    -2.0470     0.6650 n8         1 FS7      -1.011100
     25 C25         -5.9590     0.5170     1.3620 ca         1 FS7       0.023500
     26 C26         -4.6000     0.8440     1.5070 ca         1 FS7      -0.178500
     27 C27          4.7510     0.6350    -0.1170 ca         1 FS7      -0.067300
     28 C28          4.7810     2.1760    -0.1230 c6         1 FS7      -0.034100
     29 C29          5.8520     2.7830    -1.0650 c6         1 FS7      -0.062700
     30 C30          5.9930     4.3140    -0.8510 c3         1 FS7      -0.087100
     31 C31          7.2010     2.0540    -0.8770 c6         1 FS7      -0.073400
     32 C32          7.0650     0.5600    -1.2500 c6         1 FS7      -0.131700
     33 C33          5.8320    -0.1100    -0.6410 ca         1 FS7       0.373300
     34 H1           5.6950    -4.0580    -0.6170 ha         1 FS7       0.132000
     35 H2           3.8190    -5.3950     0.3120 ha         1 FS7       0.118000
     36 H3           1.8510    -4.2450     1.3150 ha         1 FS7       0.117000
     37 H4           1.7490    -1.7880     1.3870 ha         1 FS7       0.116000
     38 H5          -0.0060     1.2160     1.7480 h1         1 FS7       0.074700
     39 H6          -0.6040     3.2920     0.4240 hc         1 FS7       0.058033
     40 H7           1.1450     3.1910     0.6730 hc         1 FS7       0.058033
     41 H8           0.4470     2.7470    -0.9010 hc         1 FS7       0.058033
     42 H9          -2.1810     1.4870     1.5260 hn         1 FS7       0.156000
     43 H10         -3.4420    -0.3980    -1.4640 ha         1 FS7       0.134000
     44 H11         -5.8080    -0.9790    -1.7160 ha         1 FS7       0.139000
     45 H12         -8.6780    -2.5520    -0.0930 hn         1 FS7       0.474500
     46 H13         -8.9920    -1.9100     1.3180 hn         1 FS7       0.474500
     47 H14         -6.6600     0.7780     2.1550 ha         1 FS7       0.139000
     48 H15         -4.2720     1.3540     2.4100 ha         1 FS7       0.134000
     49 H16          3.7970     2.5720    -0.4110 hc         1 FS7       0.059200
     50 H17          4.9610     2.5230     0.9040 hc         1 FS7       0.059200
     51 H18          5.5220     2.6460    -2.1050 hc         1 FS7       0.053700
     52 H19          6.7150     4.7470    -1.5530 hc         1 FS7       0.036033
     53 H20          5.0350     4.8250    -1.0070 hc         1 FS7       0.036033
     54 H21          6.3340     4.5470     0.1650 hc         1 FS7       0.036033
     55 H22          7.9800     2.5190    -1.4980 hc         1 FS7       0.048200
     56 H23          7.5340     2.1480     0.1670 hc         1 FS7       0.048200
     57 H24          7.0080     0.4640    -2.3420 hc         1 FS7       0.065700
     58 H25          7.9740     0.0250    -0.9430 hc         1 FS7       0.065700
@<TRIPOS>BOND
     1     1     2 ar  
     2     1    33 ar  
     3     2     3 ar  
     4     2     7 ar  
     5     3     4 ar  
     6     3    34 1   
     7     4     5 ar  
     8     4    35 1   
     9     5     6 ar  
    10     5    36 1   
    11     6     7 ar  
    12     6    37 1   
    13     7     8 ar  
    14     8     9 1   
    15     8    27 ar  
    16     9    10 2   
    17     9    11 1   
    18    11    12 1   
    19    12    13 1   
    20    12    14 1   
    21    12    38 1   
    22    13    39 1   
    23    13    40 1   
    24    13    41 1   
    25    14    15 2   
    26    14    16 1   
    27    16    17 1   
    28    16    42 1   
    29    17    18 ar  
    30    17    26 ar  
    31    18    19 ar  
    32    18    43 1   
    33    19    20 ar  
    34    19    44 1   
    35    20    21 1   
    36    20    25 ar  
    37    21    22 2   
    38    21    23 2   
    39    21    24 1   
    40    24    45 1   
    41    24    46 1   
    42    25    26 ar  
    43    25    47 1   
    44    26    48 1   
    45    27    28 1   
    46    27    33 ar  
    47    28    29 1   
    48    28    49 1   
    49    28    50 1   
    50    29    30 1   
    51    29    31 1   
    52    29    51 1   
    53    30    52 1   
    54    30    53 1   
    55    30    54 1   
    56    31    32 1   
    57    31    55 1   
    58    31    56 1   
    59    32    33 1   
    60    32    57 1   
    61    32    58 1   
@<TRIPOS>SUBSTRUCTURE
     1 FS7         1 TEMP              0 ****  ****    0 ROOT
