@<TRIPOS>MOLECULE
FS8
   66    70     1     0     0
SMALL
abcg2


@<TRIPOS>ATOM
      1 OAA         -6.5900    -1.2920     0.5590 o          1 FS8      -0.572100
      2 OAC         12.2020     1.8840     0.0200 oh         1 FS8      -0.640000
      3 OAD          9.4320     2.4950     0.0170 oh         1 FS8      -0.621000
      4 CAF        -11.4940    -1.0100    -0.3630 ca         1 FS8      -0.085000
      5 CAG        -10.7750    -1.7660     0.5550 ca         1 FS8      -0.118500
      6 CAH        -10.8510    -0.0340    -1.1110 ca         1 FS8      -0.118500
      7 CAI         -2.8730     2.2190     0.2500 ca         1 FS8      -0.140000
      8 CAJ         -0.4160     0.4030     0.9750 ca         1 FS8      -0.195000
      9 CAK         -9.4170    -1.5480     0.7220 ca         1 FS8      -0.069500
     10 CAL         -9.4940     0.1960    -0.9350 ca         1 FS8      -0.069500
     11 CAM         -3.9270     3.0060     0.6880 ca         1 FS8      -0.103000
     12 CAN          6.7600    -1.5290    -0.9300 ca         1 FS8      -0.182000
     13 CAO          5.6260    -2.2890    -1.1830 ca         1 FS8      -0.082000
     14 CAP          0.8660     0.1290     1.3880 ca         1 FS8      -0.018000
     15 CAQ          0.0450    -0.8260    -1.0300 ca         1 FS8      -0.215000
     16 CAR         -4.4380     0.4940    -0.3690 ca         1 FS8      -0.144000
     17 CAS          5.4980    -0.2610     0.6700 ca         1 FS8      -0.096000
     18 CAT         11.2680     0.9990    -0.5490 c3         1 FS8       0.129600
     19 CAU          3.1980    -2.8440    -0.8930 c3         1 FS8      -0.026100
     20 CAV          2.1470    -1.9650    -1.5580 c3         1 FS8      -0.037100
     21 CAW          8.9480     0.1460    -0.3710 c3         1 FS8       0.126600
     22 NAX         -6.8360     0.8790    -0.0540 ns         1 FS8      -0.150000
     23 CBA         -7.3030    -0.3760     0.1930 c          1 FS8       0.620700
     24 CBB          3.1460    -0.7060     1.2040 c          1 FS8       0.601300
     25 CBC         -0.8520    -0.0660    -0.2720 ca         1 FS8       0.365000
     26 CBD         -3.1240     0.9500    -0.2700 ca         1 FS8       0.313000
     27 CBE         -5.2160     2.5320     0.5930 ca         1 FS8       0.100000
     28 CBF          6.6960    -0.4970     0.0010 ca         1 FS8       0.130100
     29 CBG         -8.7690    -0.5560    -0.0120 ca         1 FS8      -0.157600
     30 CBH          4.4160    -2.0470    -0.5490 ca         1 FS8      -0.083300
     31 CBI          1.3410    -1.1010    -0.6230 ca         1 FS8       0.024700
     32 CBJ         -5.5020     1.2810     0.0550 ca         1 FS8      -0.033000
     33 CBK          1.7890    -0.5950     0.6150 ca         1 FS8      -0.208600
     34 CBL          4.3620    -1.0130     0.3890 ca         1 FS8      -0.112600
     35 CBM          9.9290     1.1860     0.1460 c3         1 FS8       0.167300
     36 HOAC        13.0340     1.7810    -0.4510 ho         1 FS8       0.444000
     37 HAF        -12.5530    -1.1870    -0.5000 ha         1 FS8       0.117000
     38 HAG        -11.2740    -2.5300     1.1370 ha         1 FS8       0.119000
     39 HAH        -11.4030     0.5460    -1.8380 ha         1 FS8       0.119000
     40 HAI         -1.8690     2.6150     0.2920 ha         1 FS8       0.133000
     41 HAJ         -1.0710     0.9590     1.6290 ha         1 FS8       0.128000
     42 HAK         -8.8600    -2.1440     1.4330 ha         1 FS8       0.125000
     43 HAL         -9.0080     0.9460    -1.5460 ha         1 FS8       0.125000
     44 HAM         -3.7420     3.9910     1.0950 ha         1 FS8       0.135000
     45 HAN          7.6720    -1.7580    -1.4660 ha         1 FS8       0.115000
     46 HAO          5.6900    -3.0930    -1.9070 ha         1 FS8       0.111000
     47 HAP          1.1760     0.5050     2.3530 ha         1 FS8       0.134000
     48 HAQ         -0.2940    -1.2300    -1.9780 ha         1 FS8       0.109000
     49 HAR         -4.6260    -0.4790    -0.7980 ha         1 FS8       0.140000
     50 HAS          5.4590     0.5330     1.4050 ha         1 FS8       0.146000
     51 HAT         11.1410     1.1800    -1.6260 h1         1 FS8       0.019200
     52 HATA        11.5810    -0.0470    -0.4390 h1         1 FS8       0.019200
     53 HAU          2.7750    -3.3320    -0.0100 hc         1 FS8       0.054700
     54 HAUA         3.4740    -3.6440    -1.5810 hc         1 FS8       0.054700
     55 HAV          2.6310    -1.3330    -2.3090 hc         1 FS8       0.055200
     56 HAVA         1.4490    -2.5980    -2.1080 hc         1 FS8       0.055200
     57 HAW          9.3570    -0.8580    -0.2100 h1         1 FS8       0.034700
     58 HAWA         8.7930     0.2720    -1.4510 h1         1 FS8       0.034700
     59 HNAX        -7.5190     1.6130    -0.1590 hn         1 FS8       0.167000
     60 HNAY        -2.3680    -0.4480    -1.5510 hn         1 FS8       0.497000
     61 HBM         10.0700     1.0240     1.2200 h1         1 FS8       0.101700
     62 FAE         -6.2370     3.2980     1.0120 f          1 FS8      -0.182000
     63 NAY         -2.1100     0.1330    -0.7680 nu         1 FS8      -0.987000
     64 OAB          3.3170    -0.4410     2.3830 o          1 FS8      -0.532100
     65 OAZ          7.7290     0.3060     0.3250 os         1 FS8      -0.325100
     66 HOAD         9.3380     2.7000    -0.9200 ho         1 FS8       0.435000
@<TRIPOS>BOND
     1     1    23 2   
     2     2    18 1   
     3     2    36 1   
     4     3    35 1   
     5     3    66 1   
     6     4     5 ar  
     7     4     6 ar  
     8     4    37 1   
     9     5     9 ar  
    10     5    38 1   
    11     6    10 ar  
    12     6    39 1   
    13     7    11 ar  
    14     7    26 ar  
    15     7    40 1   
    16     8    14 ar  
    17     8    25 ar  
    18     8    41 1   
    19     9    29 ar  
    20     9    42 1   
    21    10    29 ar  
    22    10    43 1   
    23    11    27 ar  
    24    11    44 1   
    25    12    13 ar  
    26    12    28 ar  
    27    12    45 1   
    28    13    30 ar  
    29    13    46 1   
    30    14    33 ar  
    31    14    47 1   
    32    15    25 ar  
    33    15    31 ar  
    34    15    48 1   
    35    16    26 ar  
    36    16    32 ar  
    37    16    49 1   
    38    17    28 ar  
    39    17    34 ar  
    40    17    50 1   
    41    18    35 1   
    42    18    51 1   
    43    18    52 1   
    44    19    20 1   
    45    19    30 1   
    46    19    53 1   
    47    19    54 1   
    48    20    31 1   
    49    20    55 1   
    50    20    56 1   
    51    21    35 1   
    52    21    57 1   
    53    21    58 1   
    54    21    65 1   
    55    22    23 1   
    56    22    32 1   
    57    22    59 1   
    58    23    29 1   
    59    24    33 1   
    60    24    34 1   
    61    24    64 2   
    62    25    63 1   
    63    26    63 1   
    64    27    32 ar  
    65    27    62 1   
    66    28    65 1   
    67    30    34 ar  
    68    31    33 ar  
    69    35    61 1   
    70    60    63 1   
@<TRIPOS>SUBSTRUCTURE
     1 FS8         1 TEMP              0 ****  ****    0 ROOT
