@<TRIPOS>MOLECULE
FS8
   66    70     1     0     0
SMALL
No Charge or Current Charge


@<TRIPOS>ATOM
      1 OAA         -6.9940    -1.4840    -0.7360 o          1 FS8      -0.572100
      2 OAC         12.1490     2.5960    -0.6280 oh         1 FS8      -0.640000
      3 OAD          9.3600     2.8580    -0.6970 oh         1 FS8      -0.621000
      4 CAF        -11.9150    -0.2610    -0.3910 ca         1 FS8      -0.085000
      5 CAG        -11.2520    -1.4540    -0.7130 ca         1 FS8      -0.118500
      6 CAH        -11.1700     0.8880    -0.0850 ca         1 FS8      -0.118500
      7 CAI         -2.7920     1.8430     0.1600 ca         1 FS8      -0.140000
      8 CAJ         -0.3440     0.0860     1.3230 ca         1 FS8      -0.195000
      9 CAK         -9.8470    -1.5000    -0.7300 ca         1 FS8      -0.069500
     10 CAL         -9.7650     0.8500    -0.1000 ca         1 FS8      -0.069500
     11 CAM         -3.8120     2.7960     0.3140 ca         1 FS8      -0.103000
     12 CAN          6.8190    -1.4900    -0.9480 ca         1 FS8      -0.182000
     13 CAO          5.7440    -2.3900    -1.0250 ca         1 FS8      -0.082000
     14 CAP          0.9890    -0.0510     1.7320 ca         1 FS8      -0.018000
     15 CAQ          0.0810    -1.4010    -0.5240 ca         1 FS8      -0.215000
     16 CAR         -4.4610     0.1130    -0.1980 ca         1 FS8      -0.144000
     17 CAS          5.6100    -0.2170     0.7310 ca         1 FS8      -0.096000
     18 CAT         11.3310     1.4620    -0.9670 c3         1 FS8       0.129600
     19 CAU          3.4510    -3.1880    -0.3130 c3         1 FS8      -0.026100
     20 CAV          2.2420    -2.5350    -0.9890 c3         1 FS8      -0.037100
     21 CAW          8.9970     0.4210    -0.7000 c3         1 FS8       0.126600
     22 NAX         -6.8860     0.7380    -0.1420 ns         1 FS8      -0.150000
     23 CBA         -7.5630    -0.4360    -0.4510 c          1 FS8       0.620700
     24 CBB          3.3290    -0.8850     1.5480 c          1 FS8       0.601300
     25 CBC         -0.7980    -0.5740     0.1800 ca         1 FS8       0.365000
     26 CBD         -3.1130     0.4950    -0.0820 ca         1 FS8       0.313000
     27 CBE         -5.1550     2.4050     0.2150 ca         1 FS8       0.100000
     28 CBF          6.7540    -0.3970    -0.0610 ca         1 FS8       0.130100
     29 CBG         -9.0800    -0.3500    -0.4240 ca         1 FS8      -0.157600
     30 CBH          4.5970    -2.2060    -0.2280 ca         1 FS8      -0.083300
     31 CBI          1.4260    -1.5650    -0.1310 ca         1 FS8       0.024700
     32 CBJ         -5.5000     1.0620    -0.0480 ca         1 FS8      -0.033000
     33 CBK          1.9030    -0.8600     1.0150 ca         1 FS8      -0.208600
     34 CBL          4.5150    -1.1060     0.6440 ca         1 FS8      -0.112600
     35 CBM          9.9330     1.5930    -0.3080 c3         1 FS8       0.167300
     36 HOAC        13.0360     2.4420    -1.0250 ho         1 FS8       0.444000
     37 HAF        -13.0020    -0.2270    -0.3790 ha         1 FS8       0.117000
     38 HAG        -11.8260    -2.3470    -0.9510 ha         1 FS8       0.119000
     39 HAH        -11.6840     1.8140     0.1650 ha         1 FS8       0.119000
     40 HAI         -1.7540     2.1580     0.2120 ha         1 FS8       0.133000
     41 HAJ         -1.0210     0.6990     1.9090 ha         1 FS8       0.128000
     42 HAK         -9.3560    -2.4380    -0.9830 ha         1 FS8       0.125000
     43 HAL         -9.2280     1.7630     0.1440 ha         1 FS8       0.125000
     44 HAM         -3.5630     3.8380     0.5030 ha         1 FS8       0.135000
     45 HAN          7.6880    -1.6610    -1.5760 ha         1 FS8       0.115000
     46 HAO          5.8050    -3.2360    -1.7080 ha         1 FS8       0.111000
     47 HAP          1.3130     0.4930     2.6190 ha         1 FS8       0.134000
     48 HAQ         -0.2870    -1.9290    -1.4000 ha         1 FS8       0.109000
     49 HAR         -4.6800    -0.9300    -0.3900 ha         1 FS8       0.140000
     50 HAS          5.5710     0.6250     1.4170 ha         1 FS8       0.146000
     51 HAT         11.2160     1.3880    -2.0560 h1         1 FS8       0.019200
     52 HATA        11.8050     0.5350    -0.6170 h1         1 FS8       0.019200
     53 HAU          3.1720    -3.5630     0.6790 hc         1 FS8       0.054700
     54 HAUA         3.7480    -4.0680    -0.8980 hc         1 FS8       0.054700
     55 HAV          2.5740    -2.0280    -1.9030 hc         1 FS8       0.055200
     56 HAVA         1.5870    -3.3490    -1.3240 hc         1 FS8       0.055200
     57 HAW          9.5050    -0.5290    -0.4880 h1         1 FS8       0.034700
     58 HAWA         8.7830     0.4670    -1.7760 h1         1 FS8       0.034700
     59 HNAX        -7.4920     1.5210     0.0570 hn         1 FS8       0.167000
     60 HNAY        -2.4170    -1.2690    -0.8120 hn         1 FS8       0.497000
     61 HBM         10.0760     1.5590     0.7810 h1         1 FS8       0.101700
     62 FAE         -6.1250     3.3360     0.3650 f          1 FS8      -0.182000
     63 NAY         -2.1190    -0.4710    -0.2520 nu         1 FS8      -0.987000
     64 OAB          3.5330    -0.6870     2.7420 o          1 FS8      -0.532100
     65 OAZ          7.7810     0.5170     0.0690 os         1 FS8      -0.325100
     66 HOAD        10.1240     3.4770    -0.7320 ho         1 FS8       0.435000
@<TRIPOS>BOND
     1     1    23 2   
     2     2    18 1   
     3     2    36 1   
     4     3    35 1   
     5     3    66 1   
     6     4     5 ar  
     7     4     6 ar  
     8     4    37 1   
     9     5     9 ar  
    10     5    38 1   
    11     6    10 ar  
    12     6    39 1   
    13     7    11 ar  
    14     7    26 ar  
    15     7    40 1   
    16     8    14 ar  
    17     8    25 ar  
    18     8    41 1   
    19     9    29 ar  
    20     9    42 1   
    21    10    29 ar  
    22    10    43 1   
    23    11    27 ar  
    24    11    44 1   
    25    12    13 ar  
    26    12    28 ar  
    27    12    45 1   
    28    13    30 ar  
    29    13    46 1   
    30    14    33 ar  
    31    14    47 1   
    32    15    25 ar  
    33    15    31 ar  
    34    15    48 1   
    35    16    26 ar  
    36    16    32 ar  
    37    16    49 1   
    38    17    28 ar  
    39    17    34 ar  
    40    17    50 1   
    41    18    35 1   
    42    18    51 1   
    43    18    52 1   
    44    19    20 1   
    45    19    30 1   
    46    19    53 1   
    47    19    54 1   
    48    20    31 1   
    49    20    55 1   
    50    20    56 1   
    51    21    35 1   
    52    21    57 1   
    53    21    58 1   
    54    21    65 1   
    55    22    23 1   
    56    22    32 1   
    57    22    59 1   
    58    23    29 1   
    59    24    33 1   
    60    24    34 1   
    61    24    64 2   
    62    25    63 1   
    63    26    63 1   
    64    27    32 ar  
    65    27    62 1   
    66    28    65 1   
    67    30    34 ar  
    68    31    33 ar  
    69    35    61 1   
    70    60    63 1   
@<TRIPOS>SUBSTRUCTURE
     1 FS8         1 TEMP              0 ****  ****    0 ROOT
