@<TRIPOS>MOLECULE
FS9
   45    48     1     0     0
SMALL
No Charge or Current Charge


@<TRIPOS>ATOM
      1 N01         -7.2680     0.1120     1.2100 nb         1 FS9      -0.218000
      2 C02         -6.3050    -0.2940     2.0660 ca         1 FS9       0.186900
      3 N03         -4.9880    -0.4300     1.7950 nb         1 FS9      -0.308000
      4 C04         -4.5850    -0.1250     0.5420 ca         1 FS9       0.456900
      5 N05         -3.1960    -0.2780     0.2960 nh         1 FS9      -0.756300
      6 C06         -2.5100     0.5230    -0.7600 c6         1 FS9       0.213300
      7 C07         -1.0310     0.7920    -0.3870 c6         1 FS9      -0.094900
      8 C08         -0.2850    -0.5230    -0.0350 c6         1 FS9      -0.143700
      9 C09          1.2100    -0.3160     0.3030 c          1 FS9       0.610100
     10 O10          1.5480     0.3240     1.2920 o          1 FS9      -0.566100
     11 N11          2.1000    -0.9070    -0.5870 ns         1 FS9      -0.148000
     12 C12          3.5210    -0.9500    -0.6400 ca         1 FS9      -0.020000
     13 C13          4.3610    -0.2990     0.2920 ca         1 FS9      -0.091000
     14 C14          5.7680    -0.3830     0.1840 ca         1 FS9      -0.168300
     15 C15          6.6590     0.3400     1.2030 c3         1 FS9       0.356300
     16 F16          7.9230    -0.1430     1.2310 f          1 FS9      -0.112000
     17 F17          6.7480     1.6600     0.9270 f          1 FS9      -0.112000
     18 F18          6.1780     0.2310     2.4630 f          1 FS9      -0.112000
     19 C19          6.3300    -1.1190    -0.8820 ca         1 FS9      -0.089000
     20 C20          5.5010    -1.7660    -1.8100 ca         1 FS9      -0.087000
     21 C21          4.1060    -1.6820    -1.6880 ca         1 FS9      -0.143000
     22 C22         -1.0520    -1.3630     1.0210 c6         1 FS9      -0.094900
     23 C23         -2.5270    -1.5780     0.6030 c6         1 FS9       0.213300
     24 C24         -5.5420     0.3060    -0.4250 ca         1 FS9      -0.087600
     25 N25         -5.3830     0.6430    -1.7710 nc         1 FS9      -0.560100
     26 C26         -6.6340     0.9510    -2.1510 cd         1 FS9       0.406700
     27 N27         -7.5710     0.8220    -1.1210 na         1 FS9      -0.417300
     28 C28         -6.8560     0.4050    -0.0350 ca         1 FS9       0.122500
     29 H1          -6.6240    -0.5380     3.0780 h5         1 FS9       0.047100
     30 H2          -2.5550    -0.0040    -1.7250 h1         1 FS9       0.072200
     31 H3          -3.0080     1.4950    -0.8930 h1         1 FS9       0.072200
     32 H4          -0.5290     1.3060    -1.2180 hc         1 FS9       0.065950
     33 H5          -0.9960     1.4770     0.4710 hc         1 FS9       0.065950
     34 H6          -0.2960    -1.1240    -0.9560 hc         1 FS9       0.047700
     35 H7           1.6510    -1.4030    -1.3460 hn         1 FS9       0.150000
     36 H8           3.9410     0.2830     1.1070 ha         1 FS9       0.163000
     37 H9           7.4100    -1.1920    -0.9990 ha         1 FS9       0.134000
     38 H10          5.9420    -2.3330    -2.6280 ha         1 FS9       0.121000
     39 H11          3.4760    -2.1900    -2.4170 ha         1 FS9       0.113000
     40 H12         -0.5630    -2.3370     1.1640 hc         1 FS9       0.065950
     41 H13         -1.0240    -0.8520     1.9930 hc         1 FS9       0.065950
     42 H14         -3.0440    -2.1130     1.4150 h1         1 FS9       0.072200
     43 H15         -2.5610    -2.2330    -0.2810 h1         1 FS9       0.072200
     44 H17         -6.9330     1.2690    -3.1440 h5         1 FS9       0.067800
     45 H18         -8.5650     0.9990    -1.1810 hn         1 FS9       0.370000
@<TRIPOS>BOND
     1     1     2 ar  
     2     1    28 ar  
     3     2     3 ar  
     4     2    29 1   
     5     3     4 ar  
     6     4     5 1   
     7     4    24 ar  
     8     5     6 1   
     9     5    23 1   
    10     6     7 1   
    11     6    30 1   
    12     6    31 1   
    13     7     8 1   
    14     7    32 1   
    15     7    33 1   
    16     8     9 1   
    17     8    22 1   
    18     8    34 1   
    19     9    10 2   
    20     9    11 1   
    21    11    12 1   
    22    11    35 1   
    23    12    13 ar  
    24    12    21 ar  
    25    13    14 ar  
    26    13    36 1   
    27    14    15 1   
    28    14    19 ar  
    29    15    16 1   
    30    15    17 1   
    31    15    18 1   
    32    19    20 ar  
    33    19    37 1   
    34    20    21 ar  
    35    20    38 1   
    36    21    39 1   
    37    22    23 1   
    38    22    40 1   
    39    22    41 1   
    40    23    42 1   
    41    23    43 1   
    42    24    25 1   
    43    24    28 ar  
    44    25    26 2   
    45    26    27 1   
    46    26    44 1   
    47    27    28 1   
    48    27    45 1   
@<TRIPOS>SUBSTRUCTURE
     1 FS9         1 TEMP              0 ****  ****    0 ROOT
