@<TRIPOS>MOLECULE
FS9
   45    48     1     0     0
SMALL
bcc


@<TRIPOS>ATOM
      1 N01         -6.3400     0.3970     1.9060 nb         1 FS9      -0.744000
      2 C02         -5.5940    -0.6710     2.1220 ca         1 FS9       0.712900
      3 N03         -4.6210    -1.1580     1.3660 nb         1 FS9      -0.834000
      4 C04         -4.2860    -0.5610     0.2140 ca         1 FS9       0.785200
      5 N05         -3.3090    -1.1180    -0.5250 nh         1 FS9      -0.756300
      6 C06         -2.6920    -0.4790    -1.6740 c6         1 FS9       0.213300
      7 C07         -1.3090     0.0480    -1.3110 c6         1 FS9      -0.094900
      8 C08         -0.4330    -1.0710    -0.7450 c6         1 FS9      -0.143700
      9 C09          0.9020    -0.5280    -0.2740 c          1 FS9       0.677100
     10 O10          0.9770     0.4250     0.4760 o          1 FS9      -0.566100
     11 N11          1.9810    -1.2110    -0.7420 ns         1 FS9      -0.474100
     12 C12          3.3370    -1.0110    -0.4840 ca         1 FS9       0.072600
     13 C13          3.8430     0.0680     0.2350 ca         1 FS9      -0.109000
     14 C14          5.2170     0.1810     0.4260 ca         1 FS9      -0.168300
     15 C15          5.7110     1.3620     1.2050 c3         1 FS9       0.720200
     16 F16          7.0400     1.3730     1.3330 f          1 FS9      -0.233300
     17 F17          5.3620     2.5170     0.6210 f          1 FS9      -0.233300
     18 F18          5.1960     1.3890     2.4410 f          1 FS9      -0.233300
     19 C19          6.0980    -0.7560    -0.0850 ca         1 FS9      -0.107000
     20 C20          5.5860    -1.8290    -0.8020 ca         1 FS9      -0.105000
     21 C21          4.2270    -1.9570    -1.0000 ca         1 FS9      -0.161000
     22 C22         -1.1490    -1.7820     0.4100 c6         1 FS9      -0.094900
     23 C23         -2.5360    -2.2400    -0.0260 c6         1 FS9       0.213300
     24 C24         -5.0160     0.6020    -0.1360 ca         1 FS9      -0.218200
     25 N25         -4.9780     1.4710    -1.2000 nc         1 FS9      -0.560100
     26 C26         -5.9010     2.3460    -0.9520 cd         1 FS9       0.406700
     27 N27         -6.5560     2.1100     0.2210 na         1 FS9      -0.367000
     28 C28         -6.0050     0.9910     0.7650 ca         1 FS9       0.450800
     29 H1          -5.7980    -1.2220     3.0330 h5         1 FS9       0.047100
     30 H2          -2.6070    -1.2260    -2.4690 h1         1 FS9       0.072200
     31 H3          -3.3190     0.3230    -2.0510 h1         1 FS9       0.072200
     32 H4          -0.8450     0.4760    -2.2010 hc         1 FS9       0.065950
     33 H5          -1.4070     0.8520    -0.5780 hc         1 FS9       0.065950
     34 H6          -0.2760    -1.8100    -1.5410 hc         1 FS9       0.047700
     35 H7           1.7770    -1.9930    -1.3410 hn         1 FS9       0.316500
     36 H8           3.1740     0.8090     0.6400 ha         1 FS9       0.181000
     37 H9           7.1640    -0.6680     0.0650 ha         1 FS9       0.152000
     38 H10          6.2560    -2.5740    -1.2100 ha         1 FS9       0.139000
     39 H11          3.8480    -2.8060    -1.5560 ha         1 FS9       0.131000
     40 H12         -0.5700    -2.6460     0.7430 hc         1 FS9       0.065950
     41 H13         -1.2410    -1.1060     1.2640 hc         1 FS9       0.065950
     42 H14         -3.0650    -2.7140     0.7940 h1         1 FS9       0.072200
     43 H15         -2.4480    -2.9730    -0.8350 h1         1 FS9       0.072200
     44 H17         -6.1500     3.1830    -1.5850 h5         1 FS9       0.067800
     45 H18         -7.3040     2.6520     0.6190 hn         1 FS9       0.319700
@<TRIPOS>BOND
     1     1     2 ar  
     2     1    28 ar  
     3     2     3 ar  
     4     2    29 1   
     5     3     4 ar  
     6     4     5 1   
     7     4    24 ar  
     8     5     6 1   
     9     5    23 1   
    10     6     7 1   
    11     6    30 1   
    12     6    31 1   
    13     7     8 1   
    14     7    32 1   
    15     7    33 1   
    16     8     9 1   
    17     8    22 1   
    18     8    34 1   
    19     9    10 2   
    20     9    11 1   
    21    11    12 1   
    22    11    35 1   
    23    12    13 ar  
    24    12    21 ar  
    25    13    14 ar  
    26    13    36 1   
    27    14    15 1   
    28    14    19 ar  
    29    15    16 1   
    30    15    17 1   
    31    15    18 1   
    32    19    20 ar  
    33    19    37 1   
    34    20    21 ar  
    35    20    38 1   
    36    21    39 1   
    37    22    23 1   
    38    22    40 1   
    39    22    41 1   
    40    23    42 1   
    41    23    43 1   
    42    24    25 1   
    43    24    28 ar  
    44    25    26 2   
    45    26    27 1   
    46    26    44 1   
    47    27    28 1   
    48    27    45 1   
@<TRIPOS>SUBSTRUCTURE
     1 FS9         1 TEMP              0 ****  ****    0 ROOT
