@<TRIPOS>MOLECULE
FSA
   29    29     1     0     0
SMALL
No Charge or Current Charge


@<TRIPOS>ATOM
      1 OAB         -5.2730     0.6900     0.9720 o          1 FSA      -0.715500
      2 CAL         -4.7960    -0.2160     0.3010 c          1 FSA       0.735000
      3 OAA         -5.4070    -0.7900    -0.5900 o          1 FSA      -0.715500
      4 CAH         -3.3500    -0.6740     0.6110 c3         1 FSA      -0.075400
      5 SAK         -2.0490     0.2210    -0.3780 ss         1 FSA      -0.386000
      6 CAI         -0.5180    -0.6070     0.2860 c3         1 FSA       0.000600
      7 CAP          0.8060    -0.0760    -0.3430 c6         1 FSA       0.410000
      8 OAF          0.5940     0.0580    -1.7470 oh         1 FSA      -0.742000
      9 CAO          2.0460    -0.9850     0.0230 c6         1 FSA       0.167300
     10 OAE          1.9600    -2.3370    -0.4930 oh         1 FSA      -0.700000
     11 CAN          3.3690    -0.3170    -0.4670 c6         1 FSA       0.139300
     12 OAD          4.5080    -1.0830    -0.0310 oh         1 FSA      -0.718000
     13 CAM          3.4840     1.1340     0.0870 c6         1 FSA       0.106300
     14 OAC          3.6840     1.0850     1.5170 oh         1 FSA      -0.699000
     15 CAG          2.1970     1.9280    -0.2960 c6         1 FSA       0.129600
     16 OAJ          1.0030     1.2540     0.1800 os         1 FSA      -0.452000
     17 HAH         -3.1570    -0.5160     1.6790 h1         1 FSA       0.039200
     18 HAHA        -3.2750    -1.7500     0.4060 h1         1 FSA       0.039200
     19 HAI         -0.4720    -0.4650     1.3730 h1         1 FSA       0.073200
     20 HAIA        -0.5930    -1.6850     0.0940 h1         1 FSA       0.073200
     21 HOAF        -0.3470     0.3430    -1.7900 ho         1 FSA       0.548000
     22 HAO          2.0870    -1.0290     1.1210 h1         1 FSA       0.063700
     23 HOAE         2.8970    -2.6430    -0.5340 ho         1 FSA       0.506000
     24 HAN          3.3470    -0.2660    -1.5670 h1         1 FSA       0.058700
     25 HOAD         4.7550    -0.6590     0.8280 ho         1 FSA       0.497000
     26 HAM          4.3450     1.6270    -0.3880 h1         1 FSA       0.019700
     27 HOAC         3.6080     2.0080     1.8550 ho         1 FSA       0.496000
     28 HAG          2.2340     2.9340     0.1440 h1         1 FSA       0.050700
     29 HAGA         2.1440     2.0520    -1.3870 h1         1 FSA       0.050700
@<TRIPOS>BOND
     1     1     2 1   
     2     2     3 1   
     3     2     4 1   
     4     4     5 1   
     5     4    17 1   
     6     4    18 1   
     7     5     6 1   
     8     6     7 1   
     9     6    19 1   
    10     6    20 1   
    11     7     8 1   
    12     7     9 1   
    13     7    16 1   
    14     8    21 1   
    15     9    10 1   
    16     9    11 1   
    17     9    22 1   
    18    10    23 1   
    19    11    12 1   
    20    11    13 1   
    21    11    24 1   
    22    12    25 1   
    23    13    14 1   
    24    13    15 1   
    25    13    26 1   
    26    14    27 1   
    27    15    16 1   
    28    15    28 1   
    29    15    29 1   
@<TRIPOS>SUBSTRUCTURE
     1 FSA         1 TEMP              0 ****  ****    0 ROOT
