@<TRIPOS>MOLECULE
FSA
   29    29     1     0     0
SMALL
abcg2


@<TRIPOS>ATOM
      1 OAB         -5.4600    -0.9940    -0.1540 o          1 FSA      -0.715500
      2 CAL         -4.5210    -0.1790    -0.1280 c          1 FSA       0.735000
      3 OAA         -4.5440     1.0220    -0.4510 o          1 FSA      -0.715500
      4 CAH         -3.1760    -0.7400     0.3680 c3         1 FSA      -0.075400
      5 SAK         -1.9200     0.5650     0.3640 ss         1 FSA      -0.386000
      6 CAI         -0.4530    -0.3820     0.8920 c3         1 FSA       0.000600
      7 CAP          0.7330    -0.0430    -0.0090 c6         1 FSA       0.410000
      8 OAF          0.4470    -0.2940    -1.3440 oh         1 FSA      -0.742000
      9 CAO          1.9710    -0.8710     0.3710 c6         1 FSA       0.167300
     10 OAE          1.7090    -2.2180     0.0750 oh         1 FSA      -0.700000
     11 CAN          3.2040    -0.3570    -0.3700 c6         1 FSA       0.139300
     12 OAD          4.2990    -1.1310     0.0610 oh         1 FSA      -0.718000
     13 CAM          3.3930     1.1360    -0.1180 c6         1 FSA       0.106300
     14 OAC          3.7350     1.3160     1.2360 oh         1 FSA      -0.699000
     15 CAG          2.1000     1.8470    -0.4900 c6         1 FSA       0.129600
     16 OAJ          0.9950     1.3230     0.2200 os         1 FSA      -0.452000
     17 HAH         -3.2910    -1.1430     1.3770 h1         1 FSA       0.039200
     18 HAHA        -2.8540    -1.5660    -0.2710 h1         1 FSA       0.039200
     19 HAI         -0.2120    -0.1600     1.9320 h1         1 FSA       0.073200
     20 HAIA        -0.6720    -1.4470     0.8180 h1         1 FSA       0.073200
     21 HOAF        -0.4480     0.0430    -1.5140 ho         1 FSA       0.548000
     22 HAO          2.1300    -0.7310     1.4500 h1         1 FSA       0.063700
     23 HOAE         2.4770    -2.7310     0.3460 ho         1 FSA       0.506000
     24 HAN          3.0390    -0.4860    -1.4480 h1         1 FSA       0.058700
     25 HOAD         5.0250    -1.0100    -0.5580 ho         1 FSA       0.497000
     26 HAM          4.1860     1.5150    -0.7810 h1         1 FSA       0.019700
     27 HOAC         3.8300     2.2600     1.4010 ho         1 FSA       0.496000
     28 HAG          2.1580     2.9070    -0.2340 h1         1 FSA       0.050700
     29 HAGA         1.9510     1.7860    -1.5740 h1         1 FSA       0.050700
@<TRIPOS>BOND
     1     1     2 1   
     2     2     3 1   
     3     2     4 1   
     4     4     5 1   
     5     4    17 1   
     6     4    18 1   
     7     5     6 1   
     8     6     7 1   
     9     6    19 1   
    10     6    20 1   
    11     7     8 1   
    12     7     9 1   
    13     7    16 1   
    14     8    21 1   
    15     9    10 1   
    16     9    11 1   
    17     9    22 1   
    18    10    23 1   
    19    11    12 1   
    20    11    13 1   
    21    11    24 1   
    22    12    25 1   
    23    13    14 1   
    24    13    15 1   
    25    13    26 1   
    26    14    27 1   
    27    15    16 1   
    28    15    28 1   
    29    15    29 1   
@<TRIPOS>SUBSTRUCTURE
     1 FSA         1 TEMP              0 ****  ****    0 ROOT
