@<TRIPOS>MOLECULE
FSB
   34    35     1     0     0
SMALL
abcg2


@<TRIPOS>ATOM
      1 C01         -1.2910    -1.0490    -0.8630 ca         1 FSB      -0.097000
      2 C02         -2.5470    -0.4740    -0.9770 ca         1 FSB      -0.018500
      3 C03         -3.0340     0.2910     0.0710 ca         1 FSB      -0.253500
      4 C04         -2.2900     0.4960     1.2240 ca         1 FSB      -0.018500
      5 C05         -1.0280    -0.0650     1.3180 ca         1 FSB      -0.097000
      6 C06         -0.5180    -0.8340     0.2740 ca         1 FSB      -0.096600
      7 C07          0.8330    -1.4810     0.3430 c          1 FSB       0.612700
      8 O08          1.0320    -2.5610    -0.1900 o          1 FSB      -0.583100
      9 N09          1.7630    -0.7850     1.0160 ns         1 FSB      -0.499900
     10 C10          3.1350    -1.2090     1.1860 c3         1 FSB       0.153300
     11 S11         -4.6340     1.0430    -0.0540 sy         1 FSB       1.123600
     12 NP2         -5.5180     0.0650     0.9380 n8         1 FSB      -1.004100
     13 O13         -4.6040     2.3470     0.5920 o          1 FSB      -0.541500
     14 O14         -5.0530     0.9710    -1.4470 o          1 FSB      -0.541500
     15 C15          4.1050    -0.2580     0.5360 ca         1 FSB      -0.163300
     16 C16          5.0060     0.4840     1.2930 ca         1 FSB      -0.076000
     17 C17          5.8950     1.3690     0.6970 ca         1 FSB      -0.129000
     18 C18          5.8890     1.5270    -0.6810 ca         1 FSB      -0.075000
     19 C19          5.0000     0.8000    -1.4630 ca         1 FSB      -0.155000
     20 C20          4.1330    -0.0740    -0.8390 ca         1 FSB       0.190000
     21 F21          3.2810    -0.7830    -1.5970 f          1 FSB      -0.169000
     22 H01C        -0.9080    -1.6550    -1.6720 ha         1 FSB       0.130500
     23 H02C        -3.1290    -0.6270    -1.8750 ha         1 FSB       0.140000
     24 H04C        -2.6790     1.0820     2.0450 ha         1 FSB       0.140000
     25 H05C        -0.4610     0.0870     2.2270 ha         1 FSB       0.130500
     26 H09N         1.5320     0.1350     1.3540 hn         1 FSB       0.317500
     27 H101         3.3630    -1.2710     2.2520 h1         1 FSB       0.069700
     28 H102         3.2370    -2.2150     0.7820 h1         1 FSB       0.069700
     29 HNP1        -6.3730     0.5210     1.2440 hn         1 FSB       0.475500
     30 HNP2        -5.7300    -0.8340     0.5170 hn         1 FSB       0.475500
     31 H16C         5.0090     0.3610     2.3700 ha         1 FSB       0.115000
     32 H17C         6.5870     1.9320     1.3080 ha         1 FSB       0.120000
     33 H18C         6.5760     2.2150    -1.1570 ha         1 FSB       0.120000
     34 H19C         4.9820     0.9070    -2.5400 ha         1 FSB       0.135000
@<TRIPOS>BOND
     1     1     2 ar  
     2     1     6 ar  
     3     1    22 1   
     4     2     3 ar  
     5     2    23 1   
     6     3     4 ar  
     7     3    11 1   
     8     4     5 ar  
     9     4    24 1   
    10     5     6 ar  
    11     5    25 1   
    12     6     7 1   
    13     7     8 2   
    14     7     9 1   
    15     9    10 1   
    16     9    26 1   
    17    10    15 1   
    18    10    27 1   
    19    10    28 1   
    20    11    12 1   
    21    11    13 2   
    22    11    14 2   
    23    12    29 1   
    24    12    30 1   
    25    15    16 ar  
    26    15    20 ar  
    27    16    17 ar  
    28    16    31 1   
    29    17    18 ar  
    30    17    32 1   
    31    18    19 ar  
    32    18    33 1   
    33    19    20 ar  
    34    19    34 1   
    35    20    21 1   
@<TRIPOS>SUBSTRUCTURE
     1 FSB         1 TEMP              0 ****  ****    0 ROOT
