@<TRIPOS>MOLECULE
FSB
   34    35     1     0     0
SMALL
No Charge or Current Charge


@<TRIPOS>ATOM
      1 C01         -1.7900    -1.8940    -0.0870 ca         1 FSB      -0.097000
      2 C02         -3.0620    -1.2990    -0.0930 ca         1 FSB      -0.018500
      3 C03         -3.1880     0.1000     0.0050 ca         1 FSB      -0.253500
      4 C04         -2.0310     0.8950     0.1120 ca         1 FSB      -0.018500
      5 C05         -0.7580     0.2970     0.1180 ca         1 FSB      -0.097000
      6 C06         -0.6170    -1.1100     0.0170 ca         1 FSB      -0.096600
      7 C07          0.7390    -1.7920     0.0200 c          1 FSB       0.612700
      8 O08          0.8600    -3.0070    -0.0660 o          1 FSB      -0.583100
      9 N09          1.8450    -0.9780     0.1240 ns         1 FSB      -0.499900
     10 C10          3.2230    -1.4600     0.1400 c3         1 FSB       0.153300
     11 S11         -4.8150     0.8660    -0.0020 sy         1 FSB       1.123600
     12 NP2         -5.2130     0.9060     1.5790 n8         1 FSB      -1.004100
     13 O13         -4.7280     2.2780    -0.3690 o          1 FSB      -0.541500
     14 O14         -5.8130    -0.0300    -0.5830 o          1 FSB      -0.541500
     15 C15          4.2010    -0.2980     0.2330 ca         1 FSB      -0.163300
     16 C16          4.5550     0.2190     1.4950 ca         1 FSB      -0.076000
     17 C17          5.4560     1.2940     1.5940 ca         1 FSB      -0.129000
     18 C18          6.0090     1.8620     0.4340 ca         1 FSB      -0.075000
     19 C19          5.6580     1.3520    -0.8280 ca         1 FSB      -0.155000
     20 C20          4.7590     0.2790    -0.9270 ca         1 FSB       0.190000
     21 F21          4.4300    -0.1930    -2.1510 f          1 FSB      -0.169000
     22 H01C        -1.7180    -2.9770    -0.1640 ha         1 FSB       0.130500
     23 H02C        -3.9470    -1.9290    -0.1730 ha         1 FSB       0.140000
     24 H04C        -2.1110     1.9780     0.1930 ha         1 FSB       0.140000
     25 H05C         0.1090     0.9470     0.2020 ha         1 FSB       0.130500
     26 H09N         1.6860     0.0180     0.1920 hn         1 FSB       0.317500
     27 H101         3.3570    -2.1270     1.0020 h1         1 FSB       0.069700
     28 H102         3.4110    -2.0470    -0.7690 h1         1 FSB       0.069700
     29 HNP1        -5.4600     1.8880     1.6810 hn         1 FSB       0.475500
     30 HNP2        -6.1270     0.4600     1.5490 hn         1 FSB       0.475500
     31 H16C         4.1320    -0.2110     2.4010 ha         1 FSB       0.115000
     32 H17C         5.7250     1.6880     2.5720 ha         1 FSB       0.120000
     33 H18C         6.7060     2.6950     0.5120 ha         1 FSB       0.120000
     34 H19C         6.0800     1.7880    -1.7300 ha         1 FSB       0.135000
@<TRIPOS>BOND
     1     1     2 ar  
     2     1     6 ar  
     3     1    22 1   
     4     2     3 ar  
     5     2    23 1   
     6     3     4 ar  
     7     3    11 1   
     8     4     5 ar  
     9     4    24 1   
    10     5     6 ar  
    11     5    25 1   
    12     6     7 1   
    13     7     8 2   
    14     7     9 1   
    15     9    10 1   
    16     9    26 1   
    17    10    15 1   
    18    10    27 1   
    19    10    28 1   
    20    11    12 1   
    21    11    13 2   
    22    11    14 2   
    23    12    29 1   
    24    12    30 1   
    25    15    16 ar  
    26    15    20 ar  
    27    16    17 ar  
    28    16    31 1   
    29    17    18 ar  
    30    17    32 1   
    31    18    19 ar  
    32    18    33 1   
    33    19    20 ar  
    34    19    34 1   
    35    20    21 1   
@<TRIPOS>SUBSTRUCTURE
     1 FSB         1 TEMP              0 ****  ****    0 ROOT
