@<TRIPOS>MOLECULE
FSC
  104   107     1     0     0
SMALL
No Charge or Current Charge


@<TRIPOS>ATOM
      1 C1          -1.4600    -0.8120     1.4930 c2         1 FSC      -0.077400
      2 C4          -2.3830     0.1700     1.3560 c2         1 FSC      -0.117400
      3 C11         -3.0360     0.6850     0.0750 c3         1 FSC      -0.012500
      4 C18         -2.6850     2.1680    -0.1510 c3         1 FSC      -0.088100
      5 C17         -4.5650     0.4370     0.0810 c3         1 FSC       0.164600
      6 O24         -5.0870     0.7760    -1.2170 os         1 FSC      -0.455100
      7 C31         -6.4320     0.6370    -1.4250 c          1 FSC       0.593100
      8 O37         -7.2290     0.2410    -0.5860 o          1 FSC      -0.490000
      9 C36         -6.8240     1.0400    -2.8400 c3         1 FSC      -0.156100
     10 C10         -2.8670     0.6910     2.6970 c5         1 FSC      -0.085200
     11 C6          -1.7900     0.1770     3.6810 c5         1 FSC       0.163300
     12 O13         -0.7070     1.1140     3.7670 oh         1 FSC      -0.639000
     13 C2          -1.3940    -1.2010     3.0060 c5         1 FSC       0.061400
     14 C7          -2.5010    -2.2570     3.3270 c3         1 FSC      -0.090100
     15 C5          -0.1050    -1.6220     3.7630 c2         1 FSC      -0.186200
     16 C12          1.1770    -1.5980     3.3400 c2         1 FSC      -0.094400
     17 C20          2.3240    -1.5040     4.3370 c5         1 FSC      -0.032500
     18 C27          3.0770    -2.8410     4.5530 c3         1 FSC       0.162600
     19 O32          4.0270    -2.6550     5.6170 os         1 FSC      -0.456000
     20 C38          4.8080    -3.8210     5.9240 c3         1 FSC       0.148900
     21 C26          3.1680    -0.3470     3.7320 c5         1 FSC      -0.069400
     22 C25          3.1790    -0.7150     2.2230 c5         1 FSC      -0.085400
     23 C19          1.7140    -1.2210     1.9710 c5         1 FSC      -0.025500
     24 C15          1.5910    -2.3570     0.8970 c3         1 FSC      -0.022700
     25 C23          2.4500    -3.6290     1.1540 c3         1 FSC      -0.076100
     26 C9           0.1260    -2.7670     0.5320 c3         1 FSC       0.178300
     27 O16         -0.3970    -3.7530     1.4420 oh         1 FSC      -0.712000
     28 C3          -0.8580    -1.5690     0.2780 c3         1 FSC       0.221500
     29 O8          -0.1880    -0.5780    -0.5620 os         1 FSC      -0.472000
     30 C14         -0.3670    -0.6200    -2.0060 c6         1 FSC       0.368300
     31 O22         -0.5390     0.7380    -2.4850 os         1 FSC      -0.448000
     32 C30          0.6190     1.6180    -2.3500 c6         1 FSC       0.144300
     33 C33          1.8510     1.0180    -3.1000 c6         1 FSC       0.134300
     34 O39          3.0230     1.8440    -2.9410 oh         1 FSC      -0.701000
     35 C28          2.0970    -0.4350    -2.5970 c6         1 FSC       0.171300
     36 O34          3.2300    -1.0690    -3.2500 os         1 FSC      -0.459100
     37 C40          4.4830    -1.0300    -2.6930 c          1 FSC       0.609100
     38 O43          4.7450    -0.5410    -1.6050 o          1 FSC      -0.472000
     39 C42          5.5020    -1.7480    -3.5640 c3         1 FSC      -0.156100
     40 C21          0.8120    -1.2750    -2.8170 c6         1 FSC       0.125300
     41 O29          1.0570    -2.6680    -2.5360 oh         1 FSC      -0.695000
     42 C35          0.2330     3.0120    -2.9420 c3         1 FSC       0.174600
     43 O41         -0.6360     3.7180    -2.0250 os         1 FSC      -0.445000
     44 C44         -1.1860     4.9970    -2.4250 c3         1 FSC       0.225200
     45 C47         -0.0330     5.9820    -2.7430 c3         1 FSC      -0.115600
     46 C46         -2.1200     4.7830    -3.6430 c3         1 FSC      -0.115600
     47 C45         -1.9770     5.4940    -1.2230 c2         1 FSC      -0.225200
     48 C48         -1.5320     5.5630     0.0450 c2         1 FSC      -0.294000
     49 H11         -2.6550     0.1320    -0.7850 hc         1 FSC       0.049700
     50 H181        -1.6050     2.3120    -0.0390 hc         1 FSC       0.046700
     51 H182        -2.9750     2.4890    -1.1580 hc         1 FSC       0.046700
     52 H183        -3.1930     2.8140     0.5740 hc         1 FSC       0.046700
     53 H171        -4.7560    -0.6210     0.3080 h1         1 FSC       0.049700
     54 H172        -5.0360     1.0480     0.8630 h1         1 FSC       0.049700
     55 H361        -6.2290     0.4560    -3.5500 hc         1 FSC       0.068700
     56 H362        -7.8980     0.9380    -3.0260 hc         1 FSC       0.068700
     57 H363        -6.4710     2.0610    -3.0260 hc         1 FSC       0.068700
     58 H101        -2.9420     1.7830     2.7150 hc         1 FSC       0.055700
     59 H102        -3.8620     0.3010     2.9380 hc         1 FSC       0.055700
     60 H6          -2.2150     0.0270     4.6830 h1         1 FSC       0.035700
     61 H13         -1.0870     1.9550     4.0940 ho         1 FSC       0.434000
     62 H7C1        -2.2020    -3.2740     3.0680 hc         1 FSC       0.043033
     63 H7C2        -2.7330    -2.2690     4.3990 hc         1 FSC       0.043033
     64 H7C3        -3.4370    -2.0530     2.7950 hc         1 FSC       0.043033
     65 H5          -0.2450    -1.8060     4.8280 ha         1 FSC       0.163000
     66 H20          1.9500    -1.2140     5.3260 hc         1 FSC       0.066700
     67 H271         2.3520    -3.6220     4.8170 h1         1 FSC       0.022200
     68 H272         3.5910    -3.1400     3.6320 h1         1 FSC       0.022200
     69 H381         5.5070    -3.6070     6.7420 h1         1 FSC       0.024700
     70 H382         4.1610    -4.6520     6.2360 h1         1 FSC       0.024700
     71 H383         5.3900    -4.1410     5.0510 h1         1 FSC       0.024700
     72 H261         2.6780     0.6210     3.8950 hc         1 FSC       0.052700
     73 H262         4.1740    -0.2790     4.1590 hc         1 FSC       0.052700
     74 H251         3.4290     0.1450     1.5900 hc         1 FSC       0.050700
     75 H252         3.9430    -1.4710     2.0260 hc         1 FSC       0.050700
     76 H19          1.1440    -0.3630     1.6060 hc         1 FSC       0.083700
     77 H15          2.0110    -1.9350    -0.0200 hc         1 FSC       0.050700
     78 H231         2.1840    -4.1040     2.1050 hc         1 FSC       0.034367
     79 H232         2.2870    -4.3650     0.3570 hc         1 FSC       0.034367
     80 H233         3.5220    -3.4080     1.1610 hc         1 FSC       0.034367
     81 H9           0.2000    -3.2850    -0.4260 h1         1 FSC       0.025700
     82 H16         -1.1370    -4.2070     0.9840 ho         1 FSC       0.495000
     83 H3          -1.7150    -1.9850    -0.2670 h1         1 FSC       0.014700
     84 H14         -1.2890    -1.1750    -2.2350 h2         1 FSC       0.060700
     85 H30          0.8610     1.7440    -1.2850 h1         1 FSC       0.097700
     86 H33          1.5930     0.9630    -4.1690 h1         1 FSC       0.043700
     87 H39          3.6950     1.5190    -3.5830 ho         1 FSC       0.507000
     88 H28          2.2830    -0.3890    -1.5150 h1         1 FSC       0.114700
     89 H421         5.5010    -1.2920    -4.5590 hc         1 FSC       0.067033
     90 H422         6.5030    -1.7610    -3.1190 hc         1 FSC       0.067033
     91 H423         5.1370    -2.7600    -3.7730 hc         1 FSC       0.067033
     92 H21          0.5450    -1.1850    -3.8800 h1         1 FSC       0.050700
     93 H29          1.8860    -2.8990    -3.0150 ho         1 FSC       0.503000
     94 H351         1.1490     3.5900    -3.1100 h1         1 FSC       0.026700
     95 H352        -0.2490     2.8490    -3.9140 h1         1 FSC       0.026700
     96 H471         0.4790     5.7170    -3.6750 hc         1 FSC       0.041367
     97 H472        -0.4250     6.9990    -2.8600 hc         1 FSC       0.041367
     98 H473         0.7050     5.9950    -1.9320 hc         1 FSC       0.041367
     99 H461        -2.8430     3.9840    -3.4420 hc         1 FSC       0.041367
    100 H462        -2.6790     5.7010    -3.8610 hc         1 FSC       0.041367
    101 H463        -1.5560     4.5260    -4.5470 hc         1 FSC       0.041367
    102 H45         -2.9930     5.8180    -1.4540 ha         1 FSC       0.166000
    103 H481        -2.1620     5.9330     0.8550 ha         1 FSC       0.172000
    104 H482        -0.5240     5.2450     0.3150 ha         1 FSC       0.172000
@<TRIPOS>BOND
     1     1     2 2   
     2     1    13 1   
     3     1    28 1   
     4     2     3 1   
     5     2    10 1   
     6     3     4 1   
     7     3     5 1   
     8     3    49 1   
     9     4    50 1   
    10     4    51 1   
    11     4    52 1   
    12     5     6 1   
    13     5    53 1   
    14     5    54 1   
    15     6     7 1   
    16     7     8 2   
    17     7     9 1   
    18     9    55 1   
    19     9    56 1   
    20     9    57 1   
    21    10    11 1   
    22    10    58 1   
    23    10    59 1   
    24    11    12 1   
    25    11    13 1   
    26    11    60 1   
    27    12    61 1   
    28    13    14 1   
    29    13    15 1   
    30    14    62 1   
    31    14    63 1   
    32    14    64 1   
    33    15    16 2   
    34    15    65 1   
    35    16    17 1   
    36    16    23 1   
    37    17    18 1   
    38    17    21 1   
    39    17    66 1   
    40    18    19 1   
    41    18    67 1   
    42    18    68 1   
    43    19    20 1   
    44    20    69 1   
    45    20    70 1   
    46    20    71 1   
    47    21    22 1   
    48    21    72 1   
    49    21    73 1   
    50    22    23 1   
    51    22    74 1   
    52    22    75 1   
    53    23    24 1   
    54    23    76 1   
    55    24    25 1   
    56    24    26 1   
    57    24    77 1   
    58    25    78 1   
    59    25    79 1   
    60    25    80 1   
    61    26    27 1   
    62    26    28 1   
    63    26    81 1   
    64    27    82 1   
    65    28    29 1   
    66    28    83 1   
    67    29    30 1   
    68    30    31 1   
    69    30    40 1   
    70    30    84 1   
    71    31    32 1   
    72    32    33 1   
    73    32    42 1   
    74    32    85 1   
    75    33    34 1   
    76    33    35 1   
    77    33    86 1   
    78    34    87 1   
    79    35    36 1   
    80    35    40 1   
    81    35    88 1   
    82    36    37 1   
    83    37    38 2   
    84    37    39 1   
    85    39    89 1   
    86    39    90 1   
    87    39    91 1   
    88    40    41 1   
    89    40    92 1   
    90    41    93 1   
    91    42    43 1   
    92    42    94 1   
    93    42    95 1   
    94    43    44 1   
    95    44    45 1   
    96    44    46 1   
    97    44    47 1   
    98    45    96 1   
    99    45    97 1   
   100    45    98 1   
   101    46    99 1   
   102    46   100 1   
   103    46   101 1   
   104    47    48 2   
   105    47   102 1   
   106    48   103 1   
   107    48   104 1   
@<TRIPOS>SUBSTRUCTURE
     1 FSC         1 TEMP              0 ****  ****    0 ROOT
