@<TRIPOS>MOLECULE
FSC
  104   107     1     0     0
SMALL
abcg2


@<TRIPOS>ATOM
      1 C1          -1.4260    -0.6530     1.0920 c2         1 FSC      -0.077400
      2 C4          -2.5270     0.0860     0.8800 c2         1 FSC      -0.117400
      3 C11         -3.3230     0.2630    -0.3850 c3         1 FSC      -0.012500
      4 C18         -3.3200     1.7160    -0.8610 c3         1 FSC      -0.088100
      5 C17         -4.7360    -0.2570    -0.1400 c3         1 FSC       0.164600
      6 O24         -5.4310    -0.2350    -1.3900 os         1 FSC      -0.455100
      7 C31         -6.6940    -0.6450    -1.4160 c          1 FSC       0.593100
      8 O37         -7.2810    -1.0460    -0.4410 o          1 FSC      -0.490000
      9 C36         -7.2910    -0.5180    -2.7860 c3         1 FSC      -0.156100
     10 C10         -2.9990     0.7600     2.1390 c5         1 FSC      -0.085200
     11 C6          -1.7800     0.6720     3.0450 c5         1 FSC       0.163300
     12 O13         -0.9090     1.7620     2.8440 oh         1 FSC      -0.639000
     13 C2          -1.0730    -0.6280     2.5890 c5         1 FSC       0.061400
     14 C7          -1.7840    -1.7880     3.3210 c3         1 FSC      -0.090100
     15 C5           0.3420    -0.5890     3.1010 c2         1 FSC      -0.186200
     16 C12          1.5120    -1.0420     2.6640 c2         1 FSC      -0.094400
     17 C20          2.7710    -0.8160     3.4910 c5         1 FSC      -0.032500
     18 C27          2.8990    -1.8680     4.5850 c3         1 FSC       0.162600
     19 O32          4.0550    -1.6150     5.3450 os         1 FSC      -0.456000
     20 C38          4.2290    -2.5430     6.3830 c3         1 FSC       0.148900
     21 C26          3.8910    -0.8890     2.4490 c5         1 FSC      -0.069400
     22 C25          3.4030    -1.9480     1.4680 c5         1 FSC      -0.085400
     23 C19          1.8860    -1.7080     1.3590 c5         1 FSC      -0.025500
     24 C15          1.1380    -2.9960     0.9570 c3         1 FSC      -0.022700
     25 C23          1.0760    -3.9940     2.1110 c3         1 FSC      -0.076100
     26 C9          -0.2200    -2.8330     0.2100 c3         1 FSC       0.178300
     27 O16         -1.2120    -3.6320     0.8200 oh         1 FSC      -0.712000
     28 C3          -0.7980    -1.4290    -0.0450 c3         1 FSC       0.221500
     29 O8           0.1630    -0.6470    -0.7450 os         1 FSC      -0.472000
     30 C14         -0.0690    -0.2910    -2.0660 c6         1 FSC       0.368300
     31 O22         -0.1260     1.0950    -2.2150 os         1 FSC      -0.448000
     32 C30          1.0470     1.7920    -1.8350 c6         1 FSC       0.144300
     33 C33          2.2530     1.3100    -2.6560 c6         1 FSC       0.134300
     34 O39          3.4510     1.8530    -2.1560 oh         1 FSC      -0.701000
     35 C28          2.3590    -0.2070    -2.5990 c6         1 FSC       0.171300
     36 O34          3.3390    -0.6110    -3.5550 os         1 FSC      -0.459100
     37 C40          4.4550    -1.2240    -3.1670 c          1 FSC       0.609100
     38 O43          4.7220    -1.4960    -2.0260 o          1 FSC      -0.472000
     39 C42          5.3340    -1.5190    -4.3460 c3         1 FSC      -0.156100
     40 C21          1.0380    -0.8500    -2.9740 c6         1 FSC       0.125300
     41 O29          1.1720    -2.2400    -2.8750 oh         1 FSC      -0.695000
     42 C35          0.7970     3.2650    -2.0820 c3         1 FSC       0.174600
     43 O41         -0.1470     3.7260    -1.1540 os         1 FSC      -0.445000
     44 C44         -0.6490     5.0370    -1.3270 c3         1 FSC       0.225200
     45 C47          0.4750     6.0770    -1.3960 c3         1 FSC      -0.115600
     46 C46         -1.5350     5.1320    -2.5740 c3         1 FSC      -0.115600
     47 C45         -1.4950     5.3400    -0.1190 c2         1 FSC      -0.225200
     48 C48         -1.7520     4.5220     0.8920 c2         1 FSC      -0.294000
     49 H11         -2.8950    -0.3480    -1.1830 hc         1 FSC       0.049700
     50 H181        -2.3040     2.0540    -1.0530 hc         1 FSC       0.046700
     51 H182        -3.8940     1.8230    -1.7810 hc         1 FSC       0.046700
     52 H183        -3.7600     2.3840    -0.1190 hc         1 FSC       0.046700
     53 H171        -4.7040    -1.2790     0.2470 h1         1 FSC       0.049700
     54 H172        -5.2630     0.3670     0.5880 h1         1 FSC       0.049700
     55 H361        -6.5680    -0.7460    -3.5660 hc         1 FSC       0.068700
     56 H362        -8.1550    -1.1700    -2.8850 hc         1 FSC       0.068700
     57 H363        -7.6230     0.5110    -2.9360 hc         1 FSC       0.068700
     58 H101        -3.3270     1.7930     1.9900 hc         1 FSC       0.055700
     59 H102        -3.8550     0.2300     2.5710 hc         1 FSC       0.055700
     60 H6          -2.0560     0.5990     4.1050 h1         1 FSC       0.035700
     61 H13         -1.3330     2.5460     3.2040 ho         1 FSC       0.434000
     62 H7C1        -1.4070    -2.7510     2.9970 hc         1 FSC       0.043033
     63 H7C2        -1.6270    -1.7050     4.3990 hc         1 FSC       0.043033
     64 H7C3        -2.8600    -1.7770     3.1380 hc         1 FSC       0.043033
     65 H5           0.3780    -0.1300     4.0890 ha         1 FSC       0.163000
     66 H20          2.7400     0.1630     3.9790 hc         1 FSC       0.066700
     67 H271         2.0020    -1.8320     5.2200 h1         1 FSC       0.022200
     68 H272         2.9360    -2.8810     4.1570 h1         1 FSC       0.022200
     69 H381         5.1440    -2.2880     6.9190 h1         1 FSC       0.024700
     70 H382         3.3960    -2.5260     7.0960 h1         1 FSC       0.024700
     71 H383         4.3240    -3.5690     6.0080 h1         1 FSC       0.024700
     72 H261         3.9740     0.0760     1.9420 hc         1 FSC       0.052700
     73 H262         4.8690    -1.1130     2.8790 hc         1 FSC       0.052700
     74 H251         3.8840    -1.8800     0.4920 hc         1 FSC       0.050700
     75 H252         3.6180    -2.9480     1.8540 hc         1 FSC       0.050700
     76 H19          1.7480    -0.9730     0.5690 hc         1 FSC       0.083700
     77 H15          1.7950    -3.4490     0.2080 hc         1 FSC       0.050700
     78 H231         0.4730    -3.6350     2.9440 hc         1 FSC       0.034367
     79 H232         0.6790    -4.9580     1.7960 hc         1 FSC       0.034367
     80 H233         2.0800    -4.1780     2.4940 hc         1 FSC       0.034367
     81 H9          -0.0340    -3.2150    -0.8000 h1         1 FSC       0.025700
     82 H16         -1.9800    -3.6580     0.2400 ho         1 FSC       0.495000
     83 H3          -1.6210    -1.6300    -0.7440 h1         1 FSC       0.014700
     84 H14         -1.0400    -0.6700    -2.4120 h2         1 FSC       0.060700
     85 H30          1.2590     1.6380    -0.7690 h1         1 FSC       0.097700
     86 H33          2.0950     1.6020    -3.7040 h1         1 FSC       0.043700
     87 H39          3.7270     2.5800    -2.7200 ho         1 FSC       0.507000
     88 H28          2.6590    -0.5210    -1.5950 h1         1 FSC       0.114700
     89 H421         5.6650    -0.5890    -4.8110 hc         1 FSC       0.067033
     90 H422         6.2070    -2.0870    -4.0370 hc         1 FSC       0.067033
     91 H423         4.7900    -2.0830    -5.1040 hc         1 FSC       0.067033
     92 H21          0.7820    -0.5500    -4.0010 h1         1 FSC       0.050700
     93 H29          0.4720    -2.6540    -3.3890 ho         1 FSC       0.503000
     94 H351         1.7460     3.8050    -1.9820 h1         1 FSC       0.026700
     95 H352         0.4610     3.3950    -3.1200 h1         1 FSC       0.026700
     96 H471         1.0730     5.9770    -2.3030 hc         1 FSC       0.041367
     97 H472         0.0560     7.0830    -1.3990 hc         1 FSC       0.041367
     98 H473         1.1390     5.9920    -0.5350 hc         1 FSC       0.041367
     99 H461        -2.2950     4.3500    -2.5650 hc         1 FSC       0.041367
    100 H462        -2.0420     6.0970    -2.6090 hc         1 FSC       0.041367
    101 H463        -0.9570     5.0440    -3.4960 hc         1 FSC       0.041367
    102 H45         -1.9150     6.3430    -0.1120 ha         1 FSC       0.166000
    103 H481        -2.3750     4.8500     1.7150 ha         1 FSC       0.172000
    104 H482        -1.3710     3.5110     0.9390 ha         1 FSC       0.172000
@<TRIPOS>BOND
     1     1     2 2   
     2     1    13 1   
     3     1    28 1   
     4     2     3 1   
     5     2    10 1   
     6     3     4 1   
     7     3     5 1   
     8     3    49 1   
     9     4    50 1   
    10     4    51 1   
    11     4    52 1   
    12     5     6 1   
    13     5    53 1   
    14     5    54 1   
    15     6     7 1   
    16     7     8 2   
    17     7     9 1   
    18     9    55 1   
    19     9    56 1   
    20     9    57 1   
    21    10    11 1   
    22    10    58 1   
    23    10    59 1   
    24    11    12 1   
    25    11    13 1   
    26    11    60 1   
    27    12    61 1   
    28    13    14 1   
    29    13    15 1   
    30    14    62 1   
    31    14    63 1   
    32    14    64 1   
    33    15    16 2   
    34    15    65 1   
    35    16    17 1   
    36    16    23 1   
    37    17    18 1   
    38    17    21 1   
    39    17    66 1   
    40    18    19 1   
    41    18    67 1   
    42    18    68 1   
    43    19    20 1   
    44    20    69 1   
    45    20    70 1   
    46    20    71 1   
    47    21    22 1   
    48    21    72 1   
    49    21    73 1   
    50    22    23 1   
    51    22    74 1   
    52    22    75 1   
    53    23    24 1   
    54    23    76 1   
    55    24    25 1   
    56    24    26 1   
    57    24    77 1   
    58    25    78 1   
    59    25    79 1   
    60    25    80 1   
    61    26    27 1   
    62    26    28 1   
    63    26    81 1   
    64    27    82 1   
    65    28    29 1   
    66    28    83 1   
    67    29    30 1   
    68    30    31 1   
    69    30    40 1   
    70    30    84 1   
    71    31    32 1   
    72    32    33 1   
    73    32    42 1   
    74    32    85 1   
    75    33    34 1   
    76    33    35 1   
    77    33    86 1   
    78    34    87 1   
    79    35    36 1   
    80    35    40 1   
    81    35    88 1   
    82    36    37 1   
    83    37    38 2   
    84    37    39 1   
    85    39    89 1   
    86    39    90 1   
    87    39    91 1   
    88    40    41 1   
    89    40    92 1   
    90    41    93 1   
    91    42    43 1   
    92    42    94 1   
    93    42    95 1   
    94    43    44 1   
    95    44    45 1   
    96    44    46 1   
    97    44    47 1   
    98    45    96 1   
    99    45    97 1   
   100    45    98 1   
   101    46    99 1   
   102    46   100 1   
   103    46   101 1   
   104    47    48 2   
   105    47   102 1   
   106    48   103 1   
   107    48   104 1   
@<TRIPOS>SUBSTRUCTURE
     1 FSC         1 TEMP              0 ****  ****    0 ROOT
