@<TRIPOS>MOLECULE
FSD
   86    89     1     0     0
SMALL
No Charge or Current Charge


@<TRIPOS>ATOM
      1 CAA         -4.8720     0.6400    -1.9170 c3         1 FSD      -0.083100
      2 CAB         -7.8930     3.0300     0.9540 c3         1 FSD      -0.081100
      3 CAC         -9.4130     2.0780    -2.3280 c3         1 FSD       0.173100
      4 CAD        -11.5530     2.1200    -1.1080 c3         1 FSD       0.173100
      5 CAE         13.0240     0.4700     1.2680 c3         1 FSD      -0.085100
      6 CAM          7.6930     1.3610     0.5100 ca         1 FSD      -0.162000
      7 CAN          7.4350    -0.9620    -0.1170 ca         1 FSD      -0.162000
      8 CAO          6.2960     1.4940     0.5850 ca         1 FSD      -0.040000
      9 CAP          6.0370    -0.8360    -0.0440 ca         1 FSD      -0.040000
     10 CAQ          1.3200    -1.9580    -0.2310 cc         1 FSD      -0.484600
     11 CAR         -0.0360    -2.1830    -0.2580 cd         1 FSD       0.023600
     12 CAS         12.8540     0.6820    -1.2870 c3         1 FSD       0.176600
     13 CAT         -4.5540    -1.7560     1.1990 c6         1 FSD      -0.108400
     14 CAU         -3.0220    -1.5620     1.3420 c6         1 FSD      -0.114400
     15 CBB          3.9390     0.5930     0.4020 c          1 FSD       0.627700
     16 CBC         10.7700     0.7830     0.1290 c          1 FSD       0.561100
     17 CBD          8.2780     0.1290     0.1520 ca         1 FSD       0.009000
     18 CBE          5.4430     0.4010     0.3080 ca         1 FSD      -0.191600
     19 CBF          1.8140    -0.6720     0.1130 cc         1 FSD       0.626200
     20 CBG         -0.3870     0.1260     0.4040 c          1 FSD       0.711400
     21 CBH         -4.3910    -0.5370    -1.0320 c6         1 FSD       0.186300
     22 CBI         -8.0330     1.5790     0.4280 c6         1 FSD       0.174300
     23 CBJ         -8.9050    -1.2010     0.8030 c6         1 FSD       0.115300
     24 CBK         -9.5460    -0.3330    -0.3230 c6         1 FSD       0.147300
     25 CBL         -5.1750    -0.6390     0.3130 c6         1 FSD       0.136300
     26 CBM         -2.3580    -1.3890    -0.0460 c6         1 FSD       0.345700
     27 CBN         -7.4770    -0.6790     1.1570 c6         1 FSD       0.361300
     28 CBO         -9.5080     1.2000     0.0490 c6         1 FSD       0.177500
     29 CBR         12.1930     0.0920     0.0110 c3         1 FSD       0.133200
     30 NAF         12.1850    -1.4260    -0.0480 n8         1 FSD      -1.037200
     31 NAV          1.0010     0.3060     0.4140 nd         1 FSD      -0.691100
     32 NAX          3.1750    -0.5170     0.1160 ns         1 FSD      -0.425400
     33 NBP        -10.0750     2.1350    -1.0010 n3         1 FSD      -0.747600
     34 NBQ         -0.9030    -1.1430     0.0530 n          1 FSD      -0.308000
     35 OAG          3.4650     1.6770     0.7150 o          1 FSD      -0.499100
     36 OAH         10.6520     1.9970     0.2710 o          1 FSD      -0.570100
     37 OAK         -8.8790    -2.5910     0.3910 oh         1 FSD      -0.711000
     38 OAL        -10.8770    -0.8360    -0.5580 oh         1 FSD      -0.662000
     39 OAY         -2.9850    -0.3230    -0.7840 os         1 FSD      -0.450000
     40 OAZ         -7.5280     0.7250     1.4790 os         1 FSD      -0.477000
     41 OBA         -6.5740    -0.9010     0.0530 os         1 FSD      -0.471000
     42 H2          -4.2720     0.7140    -2.8310 hc         1 FSD       0.050033
     43 H3          -5.9170     0.5050    -2.2190 hc         1 FSD       0.050033
     44 H1          -4.7970     1.5950    -1.3840 hc         1 FSD       0.050033
     45 H4          -6.8610     3.2380     1.2590 hc         1 FSD       0.048367
     46 H5          -8.1590     3.7600     0.1810 hc         1 FSD       0.048367
     47 H6          -8.5430     3.2040     1.8190 hc         1 FSD       0.048367
     48 H7          -9.8110     2.8590    -2.9900 h1         1 FSD       0.030700
     49 H8          -8.3310     2.2390    -2.2450 h1         1 FSD       0.030700
     50 H9          -9.5820     1.1070    -2.8130 h1         1 FSD       0.030700
     51 H10        -11.9120     1.2230    -1.6270 h1         1 FSD       0.030700
     52 H11        -12.0190     2.1590    -0.1140 h1         1 FSD       0.030700
     53 H12        -11.9030     2.9930    -1.6750 h1         1 FSD       0.030700
     54 H13         12.5170     0.1430     2.1840 hc         1 FSD       0.054033
     55 H14         14.0160     0.0020     1.2440 hc         1 FSD       0.054033
     56 H15         13.1680     1.5560     1.3320 hc         1 FSD       0.054033
     57 H16          8.3000     2.2300     0.7420 ha         1 FSD       0.133500
     58 H17          7.8650    -1.9240    -0.3890 ha         1 FSD       0.133500
     59 H19          5.8800     2.4600     0.8640 ha         1 FSD       0.127000
     60 H20          5.4380    -1.7150    -0.2650 ha         1 FSD       0.127000
     61 H21          2.0190    -2.7510    -0.4720 ha         1 FSD       0.203000
     62 H22         -0.5110    -3.1290    -0.5120 h4         1 FSD       0.199000
     63 H23         12.2140     0.4430    -2.1480 h1         1 FSD       0.034200
     64 H24         12.8880     1.7770    -1.2070 h1         1 FSD       0.034200
     65 H26         -4.7600    -2.7380     0.7500 hc         1 FSD       0.050700
     66 H25         -5.0120    -1.7610     2.1970 hc         1 FSD       0.050700
     67 H28         -2.8170    -0.6800     1.9640 hc         1 FSD       0.075200
     68 H27         -2.5790    -2.4220     1.8610 hc         1 FSD       0.075200
     69 H31         -4.5110    -1.4710    -1.6000 h1         1 FSD       0.039700
     70 H32         -7.3810     1.4720    -0.4490 h1         1 FSD       0.047700
     71 H33         -9.5240    -1.0970     1.7070 h1         1 FSD       0.055700
     72 H34         -8.9400    -0.4710    -1.2310 h1         1 FSD       0.058700
     73 H35         -5.0800     0.3270     0.8310 h1         1 FSD       0.074700
     74 H36         -2.5000    -2.3210    -0.6120 h2         1 FSD       0.025700
     75 H37         -7.1240    -1.2350     2.0380 h2         1 FSD       0.063700
     76 H38        -10.0970     1.3190     0.9710 h1         1 FSD       0.069700
     77 H39         11.6320    -1.8220     0.7230 hn         1 FSD       0.419500
     78 H29         11.7270    -1.7550    -0.9070 hn         1 FSD       0.419500
     79 H44          3.7030    -1.3360    -0.1280 hn         1 FSD       0.323500
     80 H46         14.4910     0.5390    -2.3720 ho         1 FSD       0.443000
     81 H47         -8.0410    -2.7060    -0.1190 ho         1 FSD       0.508000
     82 H48        -10.7980    -1.8090    -0.4250 ho         1 FSD       0.457000
     83 OAI         -1.0860     1.0720     0.7310 o          1 FSD      -0.503000
     84 NAW          9.6810    -0.0840     0.0600 ns         1 FSD      -0.149000
     85 OAJ         14.1850     0.1730    -1.5130 oh         1 FSD      -0.640000
     86 H43          9.9310    -1.0530    -0.0830 hn         1 FSD       0.146000
@<TRIPOS>BOND
     1     1    21 1   
     2     1    42 1   
     3     1    43 1   
     4     1    44 1   
     5     2    22 1   
     6     2    45 1   
     7     2    46 1   
     8     2    47 1   
     9     3    33 1   
    10     3    48 1   
    11     3    49 1   
    12     3    50 1   
    13     4    33 1   
    14     4    51 1   
    15     4    52 1   
    16     4    53 1   
    17     5    29 1   
    18     5    54 1   
    19     5    55 1   
    20     5    56 1   
    21     6     8 ar  
    22     6    17 ar  
    23     6    57 1   
    24     7     9 ar  
    25     7    17 ar  
    26     7    58 1   
    27     8    18 ar  
    28     8    59 1   
    29     9    18 ar  
    30     9    60 1   
    31    10    11 2   
    32    10    19 1   
    33    10    61 1   
    34    11    34 1   
    35    11    62 1   
    36    12    29 1   
    37    12    63 1   
    38    12    64 1   
    39    12    85 1   
    40    13    14 1   
    41    13    25 1   
    42    13    65 1   
    43    13    66 1   
    44    14    26 1   
    45    14    67 1   
    46    14    68 1   
    47    15    18 1   
    48    15    32 1   
    49    15    35 2   
    50    16    29 1   
    51    16    36 2   
    52    16    84 1   
    53    17    84 1   
    54    19    31 2   
    55    19    32 1   
    56    20    31 1   
    57    20    34 1   
    58    20    83 2   
    59    21    25 1   
    60    21    39 1   
    61    21    69 1   
    62    22    28 1   
    63    22    40 1   
    64    22    70 1   
    65    23    24 1   
    66    23    27 1   
    67    23    37 1   
    68    23    71 1   
    69    24    28 1   
    70    24    38 1   
    71    24    72 1   
    72    25    41 1   
    73    25    73 1   
    74    26    34 1   
    75    26    39 1   
    76    26    74 1   
    77    27    40 1   
    78    27    41 1   
    79    27    75 1   
    80    28    33 1   
    81    28    76 1   
    82    29    30 1   
    83    30    77 1   
    84    30    78 1   
    85    32    79 1   
    86    37    81 1   
    87    38    82 1   
    88    80    85 1   
    89    84    86 1   
@<TRIPOS>SUBSTRUCTURE
     1 FSD         1 TEMP              0 ****  ****    0 ROOT
