@<TRIPOS>MOLECULE
FSD
   86    89     1     0     0
SMALL
abcg2


@<TRIPOS>ATOM
      1 CAA         -4.6090     0.2880    -1.6720 c3         1 FSD      -0.083100
      2 CAB         -7.9820     3.2160     0.1830 c3         1 FSD      -0.081100
      3 CAC         -8.9640     1.2070    -2.9380 c3         1 FSD       0.173100
      4 CAD        -11.0460     1.8820    -1.9680 c3         1 FSD       0.173100
      5 CAE         12.5110    -1.0220    -0.0540 c3         1 FSD      -0.085100
      6 CAM          7.6700     0.7800     1.1680 ca         1 FSD      -0.162000
      7 CAN          7.0700    -0.3930    -0.8470 ca         1 FSD      -0.162000
      8 CAO          6.3330     0.8070     1.5230 ca         1 FSD      -0.040000
      9 CAP          5.7420    -0.3750    -0.4720 ca         1 FSD      -0.040000
     10 CAQ          1.2150    -2.0630     0.3340 cc         1 FSD      -0.484600
     11 CAR         -0.1320    -2.1510     0.3600 cd         1 FSD       0.023600
     12 CAS         12.6490     1.4460    -0.5790 c3         1 FSD       0.176600
     13 CAT         -4.5450    -1.3120     1.8590 c6         1 FSD      -0.108400
     14 CAU         -3.0490    -1.0880     2.0650 c6         1 FSD      -0.114400
     15 CBB          3.9340     0.3160     1.1600 c          1 FSD       0.627700
     16 CBC         10.5210     0.4270     0.1280 c          1 FSD       0.561100
     17 CBD          8.0530     0.1760    -0.0330 ca         1 FSD       0.009000
     18 CBE          5.3530     0.2230     0.7260 ca         1 FSD      -0.191600
     19 CBF          1.7650    -0.8170     0.7360 cc         1 FSD       0.626200
     20 CBG         -0.3240     0.1090     1.1200 c          1 FSD       0.711400
     21 CBH         -4.2340    -0.6410    -0.5360 c6         1 FSD       0.186300
     22 CBI         -7.8960     1.7180    -0.0230 c6         1 FSD       0.174300
     23 CBJ         -8.7030    -0.8920     0.8820 c6         1 FSD       0.115300
     24 CBK         -9.1610    -0.4090    -0.4880 c6         1 FSD       0.147300
     25 CBL         -5.0590    -0.4160     0.7350 c6         1 FSD       0.136300
     26 CBM         -2.3560    -1.2840     0.7280 c6         1 FSD       0.345700
     27 CBN         -7.3780    -0.2320     1.2630 c6         1 FSD       0.361300
     28 CBO         -9.2330     1.1200    -0.4970 c6         1 FSD       0.177500
     29 CBR         11.8030     0.1720    -0.7000 c3         1 FSD       0.133200
     30 NAF         11.6040    -0.1180    -2.1020 n8         1 FSD      -1.037200
     31 NAV          1.0340     0.1940     1.1030 nd         1 FSD      -0.691100
     32 NAX          3.1330    -0.7070     0.6910 ns         1 FSD      -0.425400
     33 NBP         -9.6260     1.7180    -1.7600 n3         1 FSD      -0.747600
     34 NBQ         -0.9070    -1.1170     0.7550 n          1 FSD      -0.308000
     35 OAG          3.5380     1.2030     1.8800 o          1 FSD      -0.499100
     36 OAH         10.5780     0.8510     1.2680 o          1 FSD      -0.570100
     37 OAK         -8.6100    -2.2940     0.8470 oh         1 FSD      -0.711000
     38 OAL        -10.4360    -0.9180    -0.8000 oh         1 FSD      -0.662000
     39 OAY         -2.8590    -0.4310    -0.2580 os         1 FSD      -0.450000
     40 OAZ         -7.5040     1.1570     1.2280 os         1 FSD      -0.477000
     41 OBA         -6.3990    -0.7090     0.3960 os         1 FSD      -0.471000
     42 H2          -3.9510     0.1300    -2.5270 hc         1 FSD       0.050033
     43 H3          -5.6280     0.0970    -2.0040 hc         1 FSD       0.050033
     44 H1          -4.5370     1.3340    -1.3690 hc         1 FSD       0.050033
     45 H4          -7.0230     3.6200     0.5070 hc         1 FSD       0.048367
     46 H5          -8.2580     3.7040    -0.7490 hc         1 FSD       0.048367
     47 H6          -8.7350     3.4680     0.9330 hc         1 FSD       0.048367
     48 H7          -9.1550     1.8770    -3.7780 h1         1 FSD       0.030700
     49 H8          -7.8820     1.1740    -2.8000 h1         1 FSD       0.030700
     50 H9          -9.2960     0.2020    -3.2370 h1         1 FSD       0.030700
     51 H10        -11.5700     0.9610    -2.2550 h1         1 FSD       0.030700
     52 H11        -11.5160     2.2660    -1.0620 h1         1 FSD       0.030700
     53 H12        -11.2170     2.6160    -2.7590 h1         1 FSD       0.030700
     54 H13         11.8790    -1.9120    -0.0820 hc         1 FSD       0.054033
     55 H14         13.4300    -1.2470    -0.5920 hc         1 FSD       0.054033
     56 H15         12.7590    -0.8200     0.9870 hc         1 FSD       0.054033
     57 H16          8.3970     1.2320     1.8210 ha         1 FSD       0.133500
     58 H17          7.3480    -0.8520    -1.7880 ha         1 FSD       0.133500
     59 H19          6.0530     1.2880     2.4510 ha         1 FSD       0.127000
     60 H20          5.0160    -0.8090    -1.1470 ha         1 FSD       0.127000
     61 H21          1.8210    -2.9000     0.0230 ha         1 FSD       0.203000
     62 H22         -0.6440    -3.0570     0.0670 h4         1 FSD       0.199000
     63 H23         12.0870     2.2850    -1.0180 h1         1 FSD       0.034200
     64 H24         12.7920     1.6760     0.4800 h1         1 FSD       0.034200
     65 H26         -4.7390    -2.3570     1.5980 hc         1 FSD       0.050700
     66 H25         -5.0710    -1.1110     2.7930 hc         1 FSD       0.050700
     67 H28         -2.8680    -0.0870     2.4510 hc         1 FSD       0.075200
     68 H27         -2.6540    -1.8050     2.7870 hc         1 FSD       0.075200
     69 H31         -4.3830    -1.6850    -0.8580 h1         1 FSD       0.039700
     70 H32         -7.1210     1.5130    -0.7720 h1         1 FSD       0.047700
     71 H33         -9.4480    -0.5660     1.6230 h1         1 FSD       0.055700
     72 H34         -8.4230    -0.7390    -1.2350 h1         1 FSD       0.058700
     73 H35         -4.9490     0.6370     1.0290 h1         1 FSD       0.074700
     74 H36         -2.5180    -2.3290     0.4250 h2         1 FSD       0.025700
     75 H37         -7.1310    -0.4660     2.3070 h2         1 FSD       0.063700
     76 H38         -9.9880     1.4160     0.2430 h1         1 FSD       0.069700
     77 H39         11.2090    -1.0310    -2.2800 hn         1 FSD       0.419500
     78 H29         11.0730     0.5860    -2.5960 hn         1 FSD       0.419500
     79 H44          3.6100    -1.5100     0.3100 hn         1 FSD       0.323500
     80 H46         14.4930     1.9110    -0.8950 ho         1 FSD       0.443000
     81 H47         -8.6350    -2.6310     1.7480 ho         1 FSD       0.508000
     82 H48        -10.3820    -1.8800    -0.7870 ho         1 FSD       0.457000
     83 OAI         -1.0220     1.0540     1.4350 o          1 FSD      -0.503000
     84 NAW          9.3610     0.1160    -0.5020 ns         1 FSD      -0.149000
     85 OAJ         13.8770     1.2580    -1.2350 oh         1 FSD      -0.640000
     86 H43          9.4630    -0.2450    -1.4390 hn         1 FSD       0.146000
@<TRIPOS>BOND
     1     1    21 1   
     2     1    42 1   
     3     1    43 1   
     4     1    44 1   
     5     2    22 1   
     6     2    45 1   
     7     2    46 1   
     8     2    47 1   
     9     3    33 1   
    10     3    48 1   
    11     3    49 1   
    12     3    50 1   
    13     4    33 1   
    14     4    51 1   
    15     4    52 1   
    16     4    53 1   
    17     5    29 1   
    18     5    54 1   
    19     5    55 1   
    20     5    56 1   
    21     6     8 ar  
    22     6    17 ar  
    23     6    57 1   
    24     7     9 ar  
    25     7    17 ar  
    26     7    58 1   
    27     8    18 ar  
    28     8    59 1   
    29     9    18 ar  
    30     9    60 1   
    31    10    11 2   
    32    10    19 1   
    33    10    61 1   
    34    11    34 1   
    35    11    62 1   
    36    12    29 1   
    37    12    63 1   
    38    12    64 1   
    39    12    85 1   
    40    13    14 1   
    41    13    25 1   
    42    13    65 1   
    43    13    66 1   
    44    14    26 1   
    45    14    67 1   
    46    14    68 1   
    47    15    18 1   
    48    15    32 1   
    49    15    35 2   
    50    16    29 1   
    51    16    36 2   
    52    16    84 1   
    53    17    84 1   
    54    19    31 2   
    55    19    32 1   
    56    20    31 1   
    57    20    34 1   
    58    20    83 2   
    59    21    25 1   
    60    21    39 1   
    61    21    69 1   
    62    22    28 1   
    63    22    40 1   
    64    22    70 1   
    65    23    24 1   
    66    23    27 1   
    67    23    37 1   
    68    23    71 1   
    69    24    28 1   
    70    24    38 1   
    71    24    72 1   
    72    25    41 1   
    73    25    73 1   
    74    26    34 1   
    75    26    39 1   
    76    26    74 1   
    77    27    40 1   
    78    27    41 1   
    79    27    75 1   
    80    28    33 1   
    81    28    76 1   
    82    29    30 1   
    83    30    77 1   
    84    30    78 1   
    85    32    79 1   
    86    37    81 1   
    87    38    82 1   
    88    80    85 1   
    89    84    86 1   
@<TRIPOS>SUBSTRUCTURE
     1 FSD         1 TEMP              0 ****  ****    0 ROOT
