@<TRIPOS>MOLECULE
FSE
   31    33     1     0     0
SMALL
No Charge or Current Charge


@<TRIPOS>ATOM
      1 C6          -4.8510    -0.0080     0.0680 ca         1 FSE      -0.186000
      2 C5          -3.9760    -1.1060     0.1110 ca         1 FSE       0.018000
      3 C10         -2.5830    -0.8900     0.0690 ca         1 FSE      -0.276600
      4 C9          -2.0830     0.4140    -0.0170 ca         1 FSE       0.216100
      5 C8          -2.9600     1.5070    -0.0600 ca         1 FSE      -0.262000
      6 C7          -4.3440     1.2950    -0.0180 ca         1 FSE       0.209100
      7 C4          -1.6180    -2.0220     0.1120 c          1 FSE       0.572900
      8 C3          -0.1750    -1.6560     0.0770 cc         1 FSE      -0.070100
      9 C2           0.2360    -0.3260    -0.0140 cd         1 FSE       0.141900
     10 C1           1.6230     0.2410    -0.0120 ca         1 FSE      -0.052800
     11 C11          1.8180     1.6250    -0.2700 ca         1 FSE      -0.069000
     12 C12          3.1040     2.1940    -0.2770 ca         1 FSE      -0.135000
     13 C13          4.2240     1.3960    -0.0240 ca         1 FSE       0.141100
     14 C14          4.0630     0.0250     0.2410 ca         1 FSE       0.036100
     15 C15          2.7760    -0.5450     0.2480 ca         1 FSE      -0.116000
     16 O1          -0.7320     0.6490    -0.0630 os         1 FSE      -0.205200
     17 O4          -1.9940    -3.1890     0.1760 o          1 FSE      -0.565100
     18 O3           5.1650    -0.7520     0.4970 oh         1 FSE      -0.559100
     19 O2           5.4740     1.9390    -0.0280 oh         1 FSE      -0.530100
     20 O5           0.6480    -2.7450     0.1100 oh         1 FSE      -0.522100
     21 O7          -5.2000     2.3510    -0.0600 oh         1 FSE      -0.519100
     22 H6          -5.9260    -0.1690     0.1000 ha         1 FSE       0.139000
     23 H5          -4.3810    -2.1140     0.1780 ha         1 FSE       0.140000
     24 H8          -2.5540     2.5130    -0.1280 ha         1 FSE       0.137000
     25 H1           0.9760     2.2800    -0.4790 ha         1 FSE       0.127000
     26 H7           3.2280     3.2540    -0.4810 ha         1 FSE       0.134000
     27 H2           2.6930    -1.5990     0.4760 ha         1 FSE       0.131000
     28 H3           4.8770    -1.6790     0.6570 ho         1 FSE       0.479000
     29 H4           6.0870     1.1970     0.1750 ho         1 FSE       0.486000
     30 HO3          0.0640    -3.5400     0.1590 ho         1 FSE       0.489000
     31 HO7         -4.6690     3.1730    -0.1180 ho         1 FSE       0.474000
@<TRIPOS>BOND
     1     1     2 ar  
     2     1     6 ar  
     3     1    22 1   
     4     2     3 ar  
     5     2    23 1   
     6     3     4 ar  
     7     3     7 1   
     8     4     5 ar  
     9     4    16 1   
    10     5     6 ar  
    11     5    24 1   
    12     6    21 1   
    13     7     8 1   
    14     7    17 2   
    15     8     9 2   
    16     8    20 1   
    17     9    10 1   
    18     9    16 1   
    19    10    11 ar  
    20    10    15 ar  
    21    11    12 ar  
    22    11    25 1   
    23    12    13 ar  
    24    12    26 1   
    25    13    14 ar  
    26    13    19 1   
    27    14    15 ar  
    28    14    18 1   
    29    15    27 1   
    30    18    28 1   
    31    19    29 1   
    32    20    30 1   
    33    21    31 1   
@<TRIPOS>SUBSTRUCTURE
     1 FSE         1 TEMP              0 ****  ****    0 ROOT
