@<TRIPOS>MOLECULE
FSE
   31    33     1     0     0
SMALL
bcc


@<TRIPOS>ATOM
      1 C6          -4.7720    -0.0210     0.1200 ca         1 FSE      -0.204000
      2 C5          -3.9090    -1.0800     0.0340 ca         1 FSE       0.000000
      3 C10         -2.5180    -0.8830     0.0060 ca         1 FSE      -0.276600
      4 C9          -2.0410     0.4240     0.0690 ca         1 FSE       0.216100
      5 C8          -2.8970     1.5170     0.1560 ca         1 FSE      -0.280000
      6 C7          -4.2620     1.2910     0.1810 ca         1 FSE       0.209100
      7 C4          -1.5800    -1.9770    -0.0920 c          1 FSE       0.572900
      8 C3          -0.1770    -1.5920    -0.1140 cc         1 FSE      -0.070100
      9 C2           0.2020    -0.2940    -0.0310 cd         1 FSE       0.141900
     10 C1           1.5660     0.2340    -0.0610 ca         1 FSE      -0.052800
     11 C11          1.8210     1.4740    -0.6440 ca         1 FSE      -0.087000
     12 C12          3.1090     1.9850    -0.6740 ca         1 FSE      -0.153000
     13 C13          4.1650     1.2810    -0.1160 ca         1 FSE       0.141100
     14 C14          3.9130     0.0380     0.4830 ca         1 FSE       0.036100
     15 C15          2.6300    -0.4750     0.5070 ca         1 FSE      -0.134000
     16 O1          -0.7260     0.6880     0.0560 os         1 FSE      -0.205200
     17 O4          -1.8890    -3.1650    -0.1680 o          1 FSE      -0.565100
     18 O3           4.9830    -0.5850     1.0230 oh         1 FSE      -0.520100
     19 O2           5.4010     1.8070    -0.1590 oh         1 FSE      -0.491100
     20 O5           0.7200    -2.5850    -0.2390 oh         1 FSE      -0.483100
     21 O7          -5.1550     2.2810     0.2620 oh         1 FSE      -0.480100
     22 H6          -5.8420    -0.1770     0.1410 ha         1 FSE       0.157000
     23 H5          -4.2960    -2.0890    -0.0160 ha         1 FSE       0.158000
     24 H8          -2.4910     2.5210     0.2050 ha         1 FSE       0.155000
     25 H1           1.0240     2.0500    -1.0950 ha         1 FSE       0.145000
     26 H7           3.3020     2.9440    -1.1370 ha         1 FSE       0.152000
     27 H2           2.4600    -1.4250     0.9960 ha         1 FSE       0.149000
     28 H3           4.7320    -1.4270     1.4180 ho         1 FSE       0.440000
     29 H4           6.0350     1.2280     0.2810 ho         1 FSE       0.447000
     30 HO3          0.2200    -3.4160    -0.2800 ho         1 FSE       0.450000
     31 HO7         -4.7180     3.1400     0.2960 ho         1 FSE       0.435000
@<TRIPOS>BOND
     1     1     2 ar  
     2     1     6 ar  
     3     1    22 1   
     4     2     3 ar  
     5     2    23 1   
     6     3     4 ar  
     7     3     7 1   
     8     4     5 ar  
     9     4    16 1   
    10     5     6 ar  
    11     5    24 1   
    12     6    21 1   
    13     7     8 1   
    14     7    17 2   
    15     8     9 2   
    16     8    20 1   
    17     9    10 1   
    18     9    16 1   
    19    10    11 ar  
    20    10    15 ar  
    21    11    12 ar  
    22    11    25 1   
    23    12    13 ar  
    24    12    26 1   
    25    13    14 ar  
    26    13    19 1   
    27    14    15 ar  
    28    14    18 1   
    29    15    27 1   
    30    18    28 1   
    31    19    29 1   
    32    20    30 1   
    33    21    31 1   
@<TRIPOS>SUBSTRUCTURE
     1 FSE         1 TEMP              0 ****  ****    0 ROOT
