@<TRIPOS>MOLECULE
FSG
   13    12     1     0     0
SMALL
No Charge or Current Charge


@<TRIPOS>ATOM
      1 O1P          0.9880    -1.0680     0.9600 o          1 FSG      -0.891500
      2 P            1.0070    -0.4210    -0.3840 p5         1 FSG       1.293500
      3 O3P          2.4020    -0.0290    -0.7440 o          1 FSG      -0.891500
      4 O2P          0.4640    -1.3560    -1.4140 o          1 FSG      -0.891500
      5 C1          -0.0630     1.0850    -0.3710 c3         1 FSG      -0.185700
      6 F            0.4110     2.0870     0.4380 f          1 FSG      -0.282000
      7 C2          -1.4720     0.6150    -0.0010 c          1 FSG       0.576100
      8 O2          -2.1150     1.0730     0.9400 o          1 FSG      -0.684100
      9 N3          -2.0310    -0.3400    -0.8370 ns         1 FSG      -0.400400
     10 O3          -3.2700    -0.9870    -0.4700 oh         1 FSG      -0.486100
     11 H1          -0.0900     1.4590    -1.4010 h1         1 FSG       0.035700
     12 HN3         -1.3630    -0.9020    -1.3850 hn         1 FSG       0.407500
     13 HO3         -3.3690    -0.7120     0.4730 ho         1 FSG       0.400000
@<TRIPOS>BOND
     1     1     2 1   
     2     2     3 1   
     3     2     4 1   
     4     2     5 1   
     5     5     6 1   
     6     5     7 1   
     7     5    11 1   
     8     7     8 2   
     9     7     9 1   
    10     9    10 1   
    11     9    12 1   
    12    10    13 1   
@<TRIPOS>SUBSTRUCTURE
     1 FSG         1 TEMP              0 ****  ****    0 ROOT
