@<TRIPOS>MOLECULE
FSG
   13    12     1     0     0
SMALL
abcg2


@<TRIPOS>ATOM
      1 O1P          0.9730    -0.9830     1.0630 o          1 FSG      -0.891500
      2 P            1.0400    -0.4900    -0.3750 p5         1 FSG       1.293500
      3 O3P          2.4000    -0.0070    -0.8520 o          1 FSG      -0.891500
      4 O2P          0.3060    -1.3990    -1.3920 o          1 FSG      -0.891500
      5 C1          -0.0760     1.0340    -0.4120 c3         1 FSG      -0.185700
      6 F            0.4010     2.0090     0.4640 f          1 FSG      -0.282000
      7 C2          -1.5060     0.7270    -0.0210 c          1 FSG       0.576100
      8 O2          -2.1200     1.3330     0.8430 o          1 FSG      -0.684100
      9 N3          -2.0110    -0.2800    -0.7610 ns         1 FSG      -0.400400
     10 O3          -3.2790    -0.7320    -0.4990 oh         1 FSG      -0.486100
     11 H1          -0.0730     1.4660    -1.4190 h1         1 FSG       0.035700
     12 HN3         -1.3170    -0.9470    -1.1670 hn         1 FSG       0.407500
     13 HO3         -3.2390    -1.2270     0.3310 ho         1 FSG       0.400000
@<TRIPOS>BOND
     1     1     2 1   
     2     2     3 1   
     3     2     4 1   
     4     2     5 1   
     5     5     6 1   
     6     5     7 1   
     7     5    11 1   
     8     7     8 2   
     9     7     9 1   
    10     9    10 1   
    11     9    12 1   
    12    10    13 1   
@<TRIPOS>SUBSTRUCTURE
     1 FSG         1 TEMP              0 ****  ****    0 ROOT
