@<TRIPOS>MOLECULE
FSH
   87    92     1     0     0
SMALL
abcg2


@<TRIPOS>ATOM
      1 O5B         27.6600    44.6810     8.7320 os         1 FSH      -0.620400
      2 C5B         26.5400    43.8120     8.9170 c3         1 FSH       0.208600
      3 C4B         25.3030    44.4370     8.3180 c5         1 FSH       0.141300
      4 O4B         24.8690    45.5670     9.1200 os         1 FSH      -0.434000
      5 C3B         25.4680    44.9620     6.8780 c5         1 FSH       0.145300
      6 O3B         24.2890    44.7630     6.1030 oh         1 FSH      -0.723000
      7 C2B         25.6460    46.4580     7.1070 c5         1 FSH       0.129300
      8 O2B         25.3540    47.2340     5.9670 oh         1 FSH      -0.706000
      9 C1B         24.6920    46.6940     8.2850 c5         1 FSH       0.284300
     10 O10         24.8640    42.9180    18.6200 o          1 FSH      -0.558000
     11 N1          25.6760    42.1640    21.1450 ns         1 FSH      -0.501900
     12 C2          26.0960    43.3090    21.7470 c          1 FSH       0.627000
     13 O2          25.5780    43.9050    22.6670 o          1 FSH      -0.546000
     14 N3          27.2880    43.6830    21.1060 ns         1 FSH      -0.478500
     15 C4          27.6040    42.8630    20.0680 c          1 FSH       0.531000
     16 O4          28.5660    42.9140    19.3370 o          1 FSH      -0.448000
     17 C4X         26.4640    41.7930    20.0020 c5         1 FSH       0.225600
     18 N5          26.9220    40.4330    20.1040 nu         1 FSH      -0.924200
     19 C5X         27.4940    39.8520    18.9710 ca         1 FSH       0.243000
     20 C6          28.4830    38.8770    19.0610 ca         1 FSH      -0.135000
     21 C7          29.0130    38.2670    17.9290 ca         1 FSH      -0.067300
     22 C7M         30.0810    37.2180    18.0690 c3         1 FSH      -0.040800
     23 C8          28.5490    38.6570    16.6620 ca         1 FSH      -0.065300
     24 C8M         29.1060    38.0410    15.4080 c3         1 FSH      -0.047800
     25 C9          27.5590    39.6350    16.5760 ca         1 FSH      -0.089000
     26 C9A         27.0180    40.2240    17.7130 ca         1 FSH      -0.058000
     27 N10         25.9860    41.2000    17.6450 n          1 FSH      -0.183400
     28 C10         25.6900    42.0090    18.6820 c          1 FSH       0.563000
     29 C1          25.1960    41.3500    16.4130 c3         1 FSH       0.056000
     30 C11         25.7080    42.4500    15.4880 c3         1 FSH       0.160300
     31 O6          25.3770    43.7500    15.9720 oh         1 FSH      -0.719000
     32 C3          25.0990    42.2860    14.0970 c3         1 FSH       0.133300
     33 O3          25.5750    41.0490    13.5690 oh         1 FSH      -0.690000
     34 C12         25.4040    43.4390    13.1320 c3         1 FSH       0.136300
     35 O7          24.7650    43.1560    11.8780 oh         1 FSH      -0.717000
     36 C5          26.8810    43.6180    12.8590 c3         1 FSH       0.232600
     37 O5          27.0750    44.8470    12.1520 os         1 FSH      -0.607400
     38 P           28.5900    45.3630    11.8670 p5         1 FSH       1.488800
     39 PA          29.1500    44.1990     9.1560 p5         1 FSH       1.488800
     40 O1A         29.3440    42.7580     8.8160 o          1 FSH      -0.855500
     41 O2A         30.0820    45.2360     8.6280 o          1 FSH      -0.855500
     42 N9A         24.9550    47.8970     9.0400 na         1 FSH      -0.296300
     43 C8A         26.0400    48.1660     9.8480 cc         1 FSH       0.489700
     44 N7A         26.0020    49.3740    10.3610 nd         1 FSH      -0.578100
     45 C5A         24.8410    49.9380     9.8610 ca         1 FSH      -0.076600
     46 C6A         24.2430    51.2020    10.0230 ca         1 FSH       0.424900
     47 N6A         24.7760    52.1690    10.7870 nv         1 FSH      -1.086900
     48 N1A         23.0820    51.4410     9.3810 nb         1 FSH      -0.326000
     49 C2A         22.5490    50.4750     8.6250 ca         1 FSH       0.133900
     50 N3A         23.0210    49.2510     8.3960 nb         1 FSH      -0.208000
     51 C4A         24.1740    49.0320     9.0390 ca         1 FSH       0.096500
     52 O3P         29.1100    44.2560    10.7870 os         1 FSH      -0.734800
     53 O1P         28.4530    46.7080    11.2380 o          1 FSH      -0.854000
     54 O2P         29.4300    45.1750    13.0880 o          1 FSH      -0.854000
     55 H5B         26.7260    42.8570     8.4200 h1         1 FSH       0.049700
     56 H5BA        26.3710    43.6330     9.9790 h1         1 FSH       0.049700
     57 H4B         24.5080    43.6870     8.3360 h1         1 FSH       0.032700
     58 H3B         26.3340    44.5170     6.3860 h1         1 FSH       0.080700
     59 HO3B        24.1710    43.8140     5.9740 ho         1 FSH       0.484000
     60 H2B         26.6680    46.6260     7.4530 h1         1 FSH       0.111700
     61 HO2B        25.7480    48.1070     6.0880 ho         1 FSH       0.502000
     62 H1B         23.6650    46.7780     7.9210 h2         1 FSH       0.081700
     63 HN1         24.7450    41.8080    21.3010 hn         1 FSH       0.352500
     64 HN3         27.8490    44.4650    21.4160 hn         1 FSH       0.358500
     65 HN5         27.4090    40.2450    20.9710 hn         1 FSH       0.464000
     66 H6          28.8420    38.5950    20.0440 ha         1 FSH       0.105000
     67 H7M         30.9990    37.5170    17.5570 hc         1 FSH       0.038700
     68 H7MA        30.3170    37.0370    19.1170 hc         1 FSH       0.038700
     69 H7MB        29.7660    36.2710    17.6200 hc         1 FSH       0.038700
     70 H8M         28.6370    38.4690    14.5220 hc         1 FSH       0.048700
     71 H8MA        30.1850    38.1990    15.3310 hc         1 FSH       0.048700
     72 H8MB        28.9440    36.9600    15.3890 hc         1 FSH       0.048700
     73 H9          27.2190    39.9350    15.5960 ha         1 FSH       0.154000
     74 H1          25.2060    40.3950    15.8990 h1         1 FSH       0.072700
     75 H1'A        24.1680    41.5690    16.7010 h1         1 FSH       0.072700
     76 H2          26.7970    42.3610    15.4080 h1         1 FSH       0.088700
     77 HO2         25.0910    43.6690    16.8970 ho         1 FSH       0.520000
     78 H3          24.0060    42.2480    14.2080 h1         1 FSH       0.007700
     79 HO3         25.2860    41.0070    12.6470 ho         1 FSH       0.468000
     80 H4          25.0080    44.3640    13.5550 h1         1 FSH       0.073700
     81 HO4         23.8180    43.3210    11.9700 ho         1 FSH       0.479000
     82 H5          27.4360    43.6500    13.7970 h1         1 FSH       0.043200
     83 H5'A        27.2570    42.7840    12.2620 h1         1 FSH       0.043200
     84 H8A         26.8120    47.4360    10.0540 h5         1 FSH       0.172800
     85 HN6A        25.6570    52.0320    11.2500 hn         1 FSH       0.497000
     86 HN6B        24.3270    53.0680    10.8440 hn         1 FSH       0.497000
     87 H2A         21.6130    50.7260     8.1370 h5         1 FSH       0.021100
@<TRIPOS>BOND
     1     1     2 1   
     2     1    39 1   
     3     2     3 1   
     4     2    55 1   
     5     2    56 1   
     6     3     4 1   
     7     3     5 1   
     8     3    57 1   
     9     4     9 1   
    10     5     6 1   
    11     5     7 1   
    12     5    58 1   
    13     6    59 1   
    14     7     8 1   
    15     7     9 1   
    16     7    60 1   
    17     8    61 1   
    18     9    42 1   
    19     9    62 1   
    20    10    28 2   
    21    11    12 1   
    22    11    17 1   
    23    11    63 1   
    24    12    13 2   
    25    12    14 1   
    26    14    15 1   
    27    14    64 1   
    28    15    16 2   
    29    15    17 1   
    30    17    18 1   
    31    17    28 1   
    32    18    19 1   
    33    18    65 1   
    34    19    20 ar  
    35    19    26 ar  
    36    20    21 ar  
    37    20    66 1   
    38    21    22 1   
    39    21    23 ar  
    40    22    67 1   
    41    22    68 1   
    42    22    69 1   
    43    23    24 1   
    44    23    25 ar  
    45    24    70 1   
    46    24    71 1   
    47    24    72 1   
    48    25    26 ar  
    49    25    73 1   
    50    26    27 1   
    51    27    28 1   
    52    27    29 1   
    53    29    30 1   
    54    29    74 1   
    55    29    75 1   
    56    30    31 1   
    57    30    32 1   
    58    30    76 1   
    59    31    77 1   
    60    32    33 1   
    61    32    34 1   
    62    32    78 1   
    63    33    79 1   
    64    34    35 1   
    65    34    36 1   
    66    34    80 1   
    67    35    81 1   
    68    36    37 1   
    69    36    82 1   
    70    36    83 1   
    71    37    38 1   
    72    38    52 1   
    73    38    53 1   
    74    38    54 1   
    75    39    40 1   
    76    39    41 1   
    77    39    52 1   
    78    42    43 1   
    79    42    51 1   
    80    43    44 2   
    81    43    84 1   
    82    44    45 1   
    83    45    46 ar  
    84    45    51 ar  
    85    46    47 1   
    86    46    48 ar  
    87    47    85 1   
    88    47    86 1   
    89    48    49 ar  
    90    49    50 ar  
    91    49    87 1   
    92    50    51 ar  
@<TRIPOS>SUBSTRUCTURE
     1 FSH         1 TEMP              0 ****  ****    0 ROOT
