@<TRIPOS>MOLECULE
FSH
   87    92     1     0     0
SMALL
No Charge or Current Charge


@<TRIPOS>ATOM
      1 O5B         27.0290    44.2000     6.7990 os         1 FSH      -0.620400
      2 C5B         25.7360    43.6310     7.0730 c3         1 FSH       0.208600
      3 C4B         24.7580    44.7430     7.5640 c5         1 FSH       0.141300
      4 O4B         24.9520    45.0080     8.9820 os         1 FSH      -0.434000
      5 C3B         24.8990    46.1310     6.8250 c5         1 FSH       0.145300
      6 O3B         23.6250    46.7670     6.5720 oh         1 FSH      -0.723000
      7 C2B         25.6950    46.9360     7.8930 c5         1 FSH       0.129300
      8 O2B         25.5880    48.3510     7.6610 oh         1 FSH      -0.706000
      9 C1B         24.9410    46.4320     9.1610 c5         1 FSH       0.284300
     10 O10         24.0810    43.5750    16.8410 o          1 FSH      -0.558000
     11 N1          24.1950    43.4690    19.7030 ns         1 FSH      -0.501900
     12 C2          24.5150    44.7070    20.1690 c          1 FSH       0.627000
     13 O2          23.8040    45.4430    20.8240 o          1 FSH      -0.546000
     14 N3          25.7670    44.9540    19.7640 ns         1 FSH      -0.478500
     15 C4          26.3910    44.0080    19.0280 c          1 FSH       0.531000
     16 O4          27.5320    44.0770    18.5950 o          1 FSH      -0.448000
     17 C4X         25.2980    42.8730    18.9320 c5         1 FSH       0.225600
     18 N5          25.6260    41.5510    19.5500 nu         1 FSH      -0.924200
     19 C5X         26.5990    40.8960    18.7850 ca         1 FSH       0.243000
     20 C6          27.5700    40.1310    19.4470 ca         1 FSH      -0.135000
     21 C7          28.6030    39.4970    18.7340 ca         1 FSH      -0.067300
     22 C7M         29.6430    38.6770    19.4920 c3         1 FSH      -0.040800
     23 C8          28.6760    39.6620    17.3330 ca         1 FSH      -0.065300
     24 C8M         29.8090    39.0360    16.5240 c3         1 FSH      -0.047800
     25 C9          27.6970    40.4290    16.6690 ca         1 FSH      -0.089000
     26 C9A         26.6070    40.9950    17.3690 ca         1 FSH      -0.058000
     27 N10         25.6870    41.9020    16.7000 n          1 FSH      -0.183400
     28 C10         24.9020    42.8510    17.4050 c          1 FSH       0.563000
     29 C1          25.3800    41.6960    15.2580 c3         1 FSH       0.056000
     30 C11         26.0920    42.7110    14.3250 c3         1 FSH       0.160300
     31 O6          25.5040    44.0150    14.5040 oh         1 FSH      -0.719000
     32 C3          26.0100    42.2940    12.8230 c3         1 FSH       0.133300
     33 O3          26.6730    41.0400    12.6070 oh         1 FSH      -0.690000
     34 C12         26.5870    43.3300    11.8060 c3         1 FSH       0.136300
     35 O7          26.4920    42.7500    10.4900 oh         1 FSH      -0.717000
     36 C5          28.0540    43.7760    12.1130 c3         1 FSH       0.232600
     37 O5          28.4580    44.8530    11.2460 os         1 FSH      -0.607400
     38 P           29.2300    44.6340     9.8490 p5         1 FSH       1.488800
     39 PA          28.3400    43.7000     7.5880 p5         1 FSH       1.488800
     40 O1A         28.3830    42.2100     7.6110 o          1 FSH      -0.855500
     41 O2A         29.5340    44.2990     6.9240 o          1 FSH      -0.855500
     42 N9A         25.4680    46.7930    10.4790 na         1 FSH      -0.296300
     43 C8A         26.7140    47.3840    10.7340 cc         1 FSH       0.489700
     44 N7A         26.8090    47.7910    12.0190 nd         1 FSH      -0.578100
     45 C5A         25.5880    47.3960    12.5740 ca         1 FSH      -0.076600
     46 C6A         25.1050    47.5560    13.8910 ca         1 FSH       0.424900
     47 N6A         25.8190    48.1760    14.8700 nv         1 FSH      -1.086900
     48 N1A         23.8800    47.1290    14.2390 nb         1 FSH      -0.326000
     49 C2A         23.1580    46.5330    13.2590 ca         1 FSH       0.133900
     50 N3A         23.5390    46.3410    11.9720 nb         1 FSH      -0.208000
     51 C4A         24.7710    46.7870    11.6540 ca         1 FSH       0.096500
     52 O3P         27.9530    44.3230     8.9850 os         1 FSH      -0.734800
     53 O1P         29.8630    45.9310     9.4710 o          1 FSH      -0.854000
     54 O2P         30.2050    43.5130     9.9780 o          1 FSH      -0.854000
     55 H5B         25.3260    43.1920     6.1540 h1         1 FSH       0.049700
     56 H5BA        25.7820    42.8340     7.8260 h1         1 FSH       0.049700
     57 H4B         23.7400    44.3520     7.4410 h1         1 FSH       0.032700
     58 H3B         25.4730    46.0370     5.8920 h1         1 FSH       0.080700
     59 HO3B        23.1650    46.2380     5.8790 ho         1 FSH       0.484000
     60 H2B         26.7460    46.6140     7.9150 h1         1 FSH       0.111700
     61 HO2B        24.7310    48.4400     7.1750 ho         1 FSH       0.502000
     62 H1B         23.9050    46.7930     9.1470 h2         1 FSH       0.081700
     63 HN1         23.2760    43.0810    19.8640 hn         1 FSH       0.352500
     64 HN3         26.2240    45.8200    20.0030 hn         1 FSH       0.358500
     65 HN5         25.7450    41.4790    20.5620 hn         1 FSH       0.464000
     66 H6          27.5300    40.0400    20.5290 ha         1 FSH       0.105000
     67 H7M         30.6460    39.1040    19.3720 hc         1 FSH       0.038700
     68 H7MA        29.4290    38.6410    20.5670 hc         1 FSH       0.038700
     69 H7MB        29.6700    37.6420    19.1300 hc         1 FSH       0.038700
     70 H8M         29.7200    39.2560    15.4530 hc         1 FSH       0.048700
     71 H8MA        30.7840    39.4130    16.8540 hc         1 FSH       0.048700
     72 H8MB        29.8150    37.9440    16.6310 hc         1 FSH       0.048700
     73 H9          27.7950    40.5720    15.5960 ha         1 FSH       0.154000
     74 H1          25.6670    40.6760    14.9790 h1         1 FSH       0.072700
     75 H1'A        24.2950    41.7510    15.0980 h1         1 FSH       0.072700
     76 H2          27.1530    42.7350    14.6130 h1         1 FSH       0.088700
     77 HO2         24.8880    43.9650    15.2810 ho         1 FSH       0.520000
     78 H3          24.9450    42.1700    12.5810 h1         1 FSH       0.007700
     79 HO3         26.7900    41.0130    11.6270 ho         1 FSH       0.468000
     80 H4          25.9580    44.2290    11.8600 h1         1 FSH       0.073700
     81 HO4         26.8960    43.4240     9.8740 ho         1 FSH       0.479000
     82 H5          28.1140    44.1210    13.1520 h1         1 FSH       0.043200
     83 H5'A        28.7260    42.9120    12.0210 h1         1 FSH       0.043200
     84 H8A         27.4690    47.5190     9.9650 h5         1 FSH       0.172800
     85 HN6A        26.6420    48.6950    14.5750 hn         1 FSH       0.497000
     86 HN6B        25.3200    48.5280    15.6820 hn         1 FSH       0.497000
     87 H2A         22.1650    46.1800    13.5300 h5         1 FSH       0.021100
@<TRIPOS>BOND
     1     1     2 1   
     2     1    39 1   
     3     2     3 1   
     4     2    55 1   
     5     2    56 1   
     6     3     4 1   
     7     3     5 1   
     8     3    57 1   
     9     4     9 1   
    10     5     6 1   
    11     5     7 1   
    12     5    58 1   
    13     6    59 1   
    14     7     8 1   
    15     7     9 1   
    16     7    60 1   
    17     8    61 1   
    18     9    42 1   
    19     9    62 1   
    20    10    28 2   
    21    11    12 1   
    22    11    17 1   
    23    11    63 1   
    24    12    13 2   
    25    12    14 1   
    26    14    15 1   
    27    14    64 1   
    28    15    16 2   
    29    15    17 1   
    30    17    18 1   
    31    17    28 1   
    32    18    19 1   
    33    18    65 1   
    34    19    20 ar  
    35    19    26 ar  
    36    20    21 ar  
    37    20    66 1   
    38    21    22 1   
    39    21    23 ar  
    40    22    67 1   
    41    22    68 1   
    42    22    69 1   
    43    23    24 1   
    44    23    25 ar  
    45    24    70 1   
    46    24    71 1   
    47    24    72 1   
    48    25    26 ar  
    49    25    73 1   
    50    26    27 1   
    51    27    28 1   
    52    27    29 1   
    53    29    30 1   
    54    29    74 1   
    55    29    75 1   
    56    30    31 1   
    57    30    32 1   
    58    30    76 1   
    59    31    77 1   
    60    32    33 1   
    61    32    34 1   
    62    32    78 1   
    63    33    79 1   
    64    34    35 1   
    65    34    36 1   
    66    34    80 1   
    67    35    81 1   
    68    36    37 1   
    69    36    82 1   
    70    36    83 1   
    71    37    38 1   
    72    38    52 1   
    73    38    53 1   
    74    38    54 1   
    75    39    40 1   
    76    39    41 1   
    77    39    52 1   
    78    42    43 1   
    79    42    51 1   
    80    43    44 2   
    81    43    84 1   
    82    44    45 1   
    83    45    46 ar  
    84    45    51 ar  
    85    46    47 1   
    86    46    48 ar  
    87    47    85 1   
    88    47    86 1   
    89    48    49 ar  
    90    49    50 ar  
    91    49    87 1   
    92    50    51 ar  
@<TRIPOS>SUBSTRUCTURE
     1 FSH         1 TEMP              0 ****  ****    0 ROOT
