@<TRIPOS>MOLECULE
FSI
   39    39     1     0     0
SMALL
bcc


@<TRIPOS>ATOM
      1 O2           0.3580    -2.0760    -1.8100 oh         1 FSI      -0.635800
      2 C1           0.0350    -3.3820     0.2270 c          1 FSI       0.940600
      3 F1           1.9460    -1.6540     1.3200 f          1 FSI      -0.232300
      4 C2           0.3970    -2.0050    -0.4130 c6         1 FSI       0.170600
      5 C3           1.8290    -1.6080    -0.0680 c6         1 FSI       0.148600
      6 C4           2.1510    -0.2000    -0.5390 c6         1 FSI       0.100100
      7 O4           3.4200     0.2220    -0.1120 oh         1 FSI      -0.584800
      8 C5           1.1110     0.7880    -0.0140 c6         1 FSI       0.081700
      9 N5           1.3180     2.0910    -0.5930 ns         1 FSI      -0.564900
     10 C6          -0.3000     0.2860    -0.3540 c6         1 FSI       0.106100
     11 O6          -0.4890    -1.0440     0.0810 os         1 FSI      -0.396600
     12 C7          -1.3890     1.1000     0.3440 c3         1 FSI       0.136100
     13 O7          -1.2770     0.9950     1.7440 oh         1 FSI      -0.600800
     14 C8          -2.7990     0.7040    -0.1360 c3         1 FSI       0.107100
     15 O8          -2.9010     0.7800    -1.5400 oh         1 FSI      -0.573800
     16 C9          -3.8590     1.5500     0.5510 c3         1 FSI       0.104400
     17 O9          -5.1320     1.1130     0.1320 oh         1 FSI      -0.586800
     18 C10          1.7340     3.1780     0.0850 c          1 FSI       0.672100
     19 O10          1.9240     3.1890     1.2920 o          1 FSI      -0.594100
     20 C11          1.9500     4.4080    -0.7620 c3         1 FSI      -0.182100
     21 O1A         -1.0020    -3.4550     0.8980 o          1 FSI      -0.791800
     22 O1B          0.8430    -4.2890    -0.0440 o          1 FSI      -0.791800
     23 HO2         -0.4850    -2.4500    -2.0910 ho         1 FSI       0.419000
     24 H3           2.5340    -2.3310    -0.4840 h1         1 FSI       0.080700
     25 H4           2.0900    -0.2070    -1.6370 h1         1 FSI       0.035700
     26 HO4          4.0820    -0.1640    -0.6940 ho         1 FSI       0.394000
     27 H5           1.2160     0.8860     1.0670 h1         1 FSI       0.123700
     28 HN5          1.2300     2.1680    -1.5950 hn         1 FSI       0.296500
     29 H6          -0.4410     0.3670    -1.4400 h1         1 FSI       0.041700
     30 H7          -1.2320     2.1570     0.1000 h1         1 FSI       0.050700
     31 HO7         -1.2790     0.0560     1.9670 ho         1 FSI       0.440000
     32 H8          -2.9720    -0.3470     0.1180 h1         1 FSI       0.120700
     33 HO8         -2.8160     1.7030    -1.8060 ho         1 FSI       0.381000
     34 H9          -3.7410     1.4620     1.6360 h1         1 FSI       0.023200
     35 H9A         -3.6930     2.6100     0.2990 h1         1 FSI       0.023200
     36 HO9         -5.7900     1.5920     0.6420 ho         1 FSI       0.390000
     37 H11          1.6380     4.2850    -1.7980 hc         1 FSI       0.050033
     38 H11A         1.4060     5.2480    -0.3330 hc         1 FSI       0.050033
     39 H11B         3.0100     4.6670    -0.7540 hc         1 FSI       0.050033
@<TRIPOS>BOND
     1     1     4 1   
     2     1    23 1   
     3     2     4 1   
     4     2    21 1   
     5     2    22 1   
     6     3     5 1   
     7     4     5 1   
     8     4    11 1   
     9     5     6 1   
    10     5    24 1   
    11     6     7 1   
    12     6     8 1   
    13     6    25 1   
    14     7    26 1   
    15     8     9 1   
    16     8    10 1   
    17     8    27 1   
    18     9    18 1   
    19     9    28 1   
    20    10    11 1   
    21    10    12 1   
    22    10    29 1   
    23    12    13 1   
    24    12    14 1   
    25    12    30 1   
    26    13    31 1   
    27    14    15 1   
    28    14    16 1   
    29    14    32 1   
    30    15    33 1   
    31    16    17 1   
    32    16    34 1   
    33    16    35 1   
    34    17    36 1   
    35    18    19 2   
    36    18    20 1   
    37    20    37 1   
    38    20    38 1   
    39    20    39 1   
@<TRIPOS>SUBSTRUCTURE
     1 FSI         1 TEMP              0 ****  ****    0 ROOT
