@<TRIPOS>MOLECULE
FSI
   39    39     1     0     0
SMALL
No Charge or Current Charge


@<TRIPOS>ATOM
      1 O2           0.1950    -2.2140    -1.7130 oh         1 FSI      -0.698000
      2 C1           0.2670    -3.5630     0.3840 c          1 FSI       0.730000
      3 F1           2.2540    -1.7430     1.3220 f          1 FSI      -0.251000
      4 C2           0.4870    -2.1270    -0.2960 c6         1 FSI       0.217000
      5 C3           1.9720    -1.7030    -0.0660 c6         1 FSI       0.167300
      6 C4           2.2430    -0.2570    -0.5900 c6         1 FSI       0.123300
      7 O4           3.5970     0.1640    -0.3120 oh         1 FSI      -0.647000
      8 C5           1.2160     0.7540     0.0080 c6         1 FSI       0.081700
      9 N5           1.4430     2.1070    -0.5550 ns         1 FSI      -0.497900
     10 C6          -0.2350     0.2430    -0.2710 c6         1 FSI       0.129300
     11 O6          -0.4010    -1.1080     0.2500 os         1 FSI      -0.443000
     12 C7          -1.3490     1.1020     0.4240 c3         1 FSI       0.159300
     13 O7          -1.4290     0.7190     1.8100 oh         1 FSI      -0.723000
     14 C8          -2.7530     0.9500    -0.2430 c3         1 FSI       0.130300
     15 O8          -2.7150     1.3970    -1.6110 oh         1 FSI      -0.636000
     16 C9          -3.8640     1.7610     0.4790 c3         1 FSI       0.127600
     17 O9          -5.0930     1.6910    -0.2700 oh         1 FSI      -0.709000
     18 C10          1.4310     3.2880     0.1480 c          1 FSI       0.605100
     19 O10          1.2230     3.3400     1.3510 o          1 FSI      -0.594100
     20 C11          1.7000     4.5320    -0.6910 c3         1 FSI      -0.182100
     21 O1A         -0.3630    -3.6010     1.4370 o          1 FSI      -0.686500
     22 O1B          0.1600    -4.4940    -0.4120 o          1 FSI      -0.686500
     23 HO2          0.0080    -3.1750    -1.8440 ho         1 FSI       0.458000
     24 H3           2.6440    -2.4200    -0.5580 h1         1 FSI       0.080700
     25 H4           2.0950    -0.2700    -1.6810 h1         1 FSI       0.035700
     26 HO4          4.1950    -0.3980    -0.8520 ho         1 FSI       0.433000
     27 H5           1.3670     0.7920     1.0970 h1         1 FSI       0.123700
     28 HN5          1.6540     2.1810    -1.5430 hn         1 FSI       0.296500
     29 H6          -0.4090     0.2430    -1.3560 h1         1 FSI       0.041700
     30 H7          -1.0740     2.1620     0.3470 h1         1 FSI       0.050700
     31 HO7         -1.1380    -0.2280     1.8040 ho         1 FSI       0.539000
     32 H8          -3.0340    -0.1130    -0.2000 h1         1 FSI       0.120700
     33 HO8         -3.6500     1.6360    -1.8090 ho         1 FSI       0.420000
     34 H9          -4.0140     1.3540     1.4880 h1         1 FSI       0.023200
     35 H9A         -3.5420     2.8060     0.5850 h1         1 FSI       0.023200
     36 HO9         -5.7820     2.1590     0.2590 ho         1 FSI       0.489000
     37 H11          0.9800     4.5680    -1.5160 hc         1 FSI       0.050033
     38 H11A         1.6840     5.4540    -0.0990 hc         1 FSI       0.050033
     39 H11B         2.6520     4.4070    -1.2200 hc         1 FSI       0.050033
@<TRIPOS>BOND
     1     1     4 1   
     2     1    23 1   
     3     2     4 1   
     4     2    21 1   
     5     2    22 1   
     6     3     5 1   
     7     4     5 1   
     8     4    11 1   
     9     5     6 1   
    10     5    24 1   
    11     6     7 1   
    12     6     8 1   
    13     6    25 1   
    14     7    26 1   
    15     8     9 1   
    16     8    10 1   
    17     8    27 1   
    18     9    18 1   
    19     9    28 1   
    20    10    11 1   
    21    10    12 1   
    22    10    29 1   
    23    12    13 1   
    24    12    14 1   
    25    12    30 1   
    26    13    31 1   
    27    14    15 1   
    28    14    16 1   
    29    14    32 1   
    30    15    33 1   
    31    16    17 1   
    32    16    34 1   
    33    16    35 1   
    34    17    36 1   
    35    18    19 2   
    36    18    20 1   
    37    20    37 1   
    38    20    38 1   
    39    20    39 1   
@<TRIPOS>SUBSTRUCTURE
     1 FSI         1 TEMP              0 ****  ****    0 ROOT
