@<TRIPOS>MOLECULE
FSJ
   66    68     1     0     0
SMALL
No Charge or Current Charge


@<TRIPOS>ATOM
      1 C11         -3.8830    -0.5320    -0.4720 c6         1 FSJ       0.411300
      2 C12          0.9410     1.8840    -1.1140 c6         1 FSJ       0.153500
      3 C13          2.2320    -1.1230     0.4370 c6         1 FSJ       0.348300
      4 C21         -4.9680    -1.3010    -1.3160 c6         1 FSJ       0.131500
      5 C22         -0.2200     2.8580    -0.8010 c6         1 FSJ      -0.114400
      6 C23          3.3460    -0.3140     1.1950 c6         1 FSJ       0.170300
      7 C31         -5.7110    -2.2610    -0.3550 c6         1 FSJ      -0.070200
      8 C32         -1.5710     2.3030    -1.3270 c6         1 FSJ       0.171500
      9 C33          4.6680    -0.2700     0.3370 c6         1 FSJ       0.177500
     10 C41         -6.1150    -1.5330     0.9230 c2         1 FSJ      -0.327200
     11 C42         -1.8820     0.8720    -0.7610 c6         1 FSJ       0.175300
     12 C43          5.0730    -1.7270    -0.1350 c6         1 FSJ       0.121000
     13 C51         -5.5410    -0.3800     1.3160 c2         1 FSJ       0.060900
     14 C52         -0.6940    -0.1000    -1.0920 c6         1 FSJ       0.131300
     15 C53          3.8490    -2.3690    -0.8560 c6         1 FSJ       0.134600
     16 C61         -5.9820     0.4500     2.5140 c3         1 FSJ       0.235800
     17 C62          0.6340     0.4770    -0.5180 c6         1 FSJ       0.161300
     18 C83          6.2930    -1.7240    -1.0990 c3         1 FSJ      -0.125100
     19 N12          2.2230     2.4430    -0.6060 n8         1 FSJ      -0.998200
     20 N21         -5.9690    -0.4170    -2.0030 n8         1 FSJ      -0.972200
     21 N33          5.7800     0.3850     1.0960 n7         1 FSJ      -0.873400
     22 F61         -5.5980    -0.1230     3.6840 f          1 FSJ      -0.256000
     23 O11         -3.1520     0.4060    -1.2950 os         1 FSJ      -0.420000
     24 O23          2.8950     1.0180     1.5740 oh         1 FSJ      -0.731000
     25 O43          5.4410    -2.5290     1.0060 oh         1 FSJ      -0.711000
     26 O51         -4.5030     0.1970     0.6180 os         1 FSJ      -0.373100
     27 O52         -0.9000    -1.4510    -0.6250 oh         1 FSJ      -0.727000
     28 O53          2.7100    -2.4200     0.0300 os         1 FSJ      -0.452000
     29 O62          1.7420    -0.4340    -0.7360 os         1 FSJ      -0.507000
     30 H1          -3.2030    -1.2840    -0.0490 h2         1 FSJ       0.057700
     31 H2           1.0270     1.7980    -2.2100 h1         1 FSJ       0.068700
     32 H3           1.3970    -1.2830     1.1360 h2         1 FSJ       0.081700
     33 H4          -4.4610    -1.9000    -2.0900 h1         1 FSJ       0.082700
     34 H5          -0.2840     3.0260     0.2840 hc         1 FSJ       0.055200
     35 H6          -0.0190     3.8350    -1.2610 hc         1 FSJ       0.055200
     36 H7           3.5730    -0.8840     2.1080 h1         1 FSJ       0.094700
     37 H8          -6.5950    -2.6920    -0.8460 hc         1 FSJ       0.056200
     38 H9          -5.0600    -3.1080    -0.0970 hc         1 FSJ       0.056200
     39 H10         -1.5190     2.2240    -2.4230 h1         1 FSJ       0.030700
     40 H11          4.4480     0.3290    -0.5610 h1         1 FSJ       0.060700
     41 H12         -6.9450    -1.9600     1.4900 ha         1 FSJ       0.188000
     42 H13         -1.9710     0.9590     0.3320 h1         1 FSJ       0.071700
     43 H14         -0.5910    -0.1190    -2.1870 h1         1 FSJ       0.052700
     44 H15          3.5930    -1.7990    -1.7610 h1         1 FSJ       0.052200
     45 H16          4.0950    -3.3930    -1.1720 h1         1 FSJ       0.052200
     46 H17         -5.5500     1.4570     2.4640 h1         1 FSJ       0.056700
     47 H18         -7.0750     0.5470     2.5190 h1         1 FSJ       0.056700
     48 H19          0.4900     0.6110     0.5650 h1         1 FSJ       0.054700
     49 H20          7.2130    -1.4050    -0.5950 hc         1 FSJ       0.044367
     50 H21          6.4820    -2.7260    -1.5030 hc         1 FSJ       0.044367
     51 H22          6.1260    -1.0530    -1.9500 hc         1 FSJ       0.044367
     52 H23          7.1380     0.8940    -0.4740 h1         1 FSJ       0.023700
     53 H24          6.0240     2.1940     0.0030 h1         1 FSJ       0.023700
     54 H25          7.3930     1.7670     1.0520 h1         1 FSJ       0.023700
     55 H26          2.9450     2.2650    -1.3180 hn         1 FSJ       0.406000
     56 H27          2.1540     3.4700    -0.6200 hn         1 FSJ       0.406000
     57 H29         -6.8040    -0.9720    -2.2150 hn         1 FSJ       0.394500
     58 H30         -6.3030     0.2580    -1.3070 hn         1 FSJ       0.394500
     59 H35          6.3700    -0.3750     1.4630 hn         1 FSJ       0.433000
     60 H37          2.6580     1.4980     0.7200 ho         1 FSJ       0.541000
     61 H38          4.6560    -3.0850     1.2170 ho         1 FSJ       0.501000
     62 H39         -0.0560    -1.9260    -0.8140 ho         1 FSJ       0.525000
     63 N32         -2.6580     3.2640    -1.0210 n8         1 FSJ      -0.998200
     64 C93          6.6280     1.3570     0.3800 c3         1 FSJ       0.165100
     65 H32         -2.6530     4.0070    -1.7290 hn         1 FSJ       0.408500
     66 H33         -3.5490     2.7800    -1.1890 hn         1 FSJ       0.408500
@<TRIPOS>BOND
     1     1     4 1   
     2     1    23 1   
     3     1    26 1   
     4     1    30 1   
     5     2     5 1   
     6     2    17 1   
     7     2    19 1   
     8     2    31 1   
     9     3     6 1   
    10     3    28 1   
    11     3    29 1   
    12     3    32 1   
    13     4     7 1   
    14     4    20 1   
    15     4    33 1   
    16     5     8 1   
    17     5    34 1   
    18     5    35 1   
    19     6     9 1   
    20     6    24 1   
    21     6    36 1   
    22     7    10 1   
    23     7    37 1   
    24     7    38 1   
    25     8    11 1   
    26     8    39 1   
    27     8    63 1   
    28     9    12 1   
    29     9    21 1   
    30     9    40 1   
    31    10    13 2   
    32    10    41 1   
    33    11    14 1   
    34    11    23 1   
    35    11    42 1   
    36    12    15 1   
    37    12    18 1   
    38    12    25 1   
    39    13    16 1   
    40    13    26 1   
    41    14    17 1   
    42    14    27 1   
    43    14    43 1   
    44    15    28 1   
    45    15    44 1   
    46    15    45 1   
    47    16    22 1   
    48    16    46 1   
    49    16    47 1   
    50    17    29 1   
    51    17    48 1   
    52    18    49 1   
    53    18    50 1   
    54    18    51 1   
    55    19    55 1   
    56    19    56 1   
    57    20    57 1   
    58    20    58 1   
    59    21    59 1   
    60    21    64 1   
    61    24    60 1   
    62    25    61 1   
    63    27    62 1   
    64    52    64 1   
    65    53    64 1   
    66    54    64 1   
    67    63    65 1   
    68    63    66 1   
@<TRIPOS>SUBSTRUCTURE
     1 FSJ         1 TEMP              0 ****  ****    0 ROOT
