@<TRIPOS>MOLECULE
FSJ
   66    68     1     0     0
SMALL
abcg2


@<TRIPOS>ATOM
      1 C11         -3.7150    -0.4320    -0.2690 c6         1 FSJ       0.411300
      2 C12          0.8680     2.2660    -0.4540 c6         1 FSJ       0.153500
      3 C13          2.3850    -0.6810     0.8830 c6         1 FSJ       0.348300
      4 C21         -4.2180    -1.6810    -0.9810 c6         1 FSJ       0.131500
      5 C22         -0.4390     3.0470    -0.3540 c6         1 FSJ      -0.114400
      6 C23          3.7920    -0.1760     1.2160 c6         1 FSJ       0.170300
      7 C31         -5.1280    -2.4240     0.0040 c6         1 FSJ      -0.070200
      8 C32         -1.6170     2.3420    -1.0170 c6         1 FSJ       0.171500
      9 C33          4.7610    -0.4260     0.0510 c6         1 FSJ       0.177500
     10 C41         -6.0670    -1.4650     0.6670 c2         1 FSJ      -0.327200
     11 C42         -1.7860     0.9590    -0.3980 c6         1 FSJ       0.175300
     12 C43          4.6800    -1.9030    -0.3900 c6         1 FSJ       0.121000
     13 C51         -5.8740    -0.1460     0.6260 c2         1 FSJ       0.060900
     14 C52         -0.5060     0.1470    -0.5500 c6         1 FSJ       0.131300
     15 C53          3.2200    -2.2790    -0.6370 c6         1 FSJ       0.134600
     16 C61         -6.8300     0.8430     1.1920 c3         1 FSJ       0.235800
     17 C62          0.6740     0.8600     0.1060 c6         1 FSJ       0.161300
     18 C83          5.4750    -2.1630    -1.6650 c3         1 FSJ      -0.125100
     19 N12          1.9880     2.9130     0.2240 n8         1 FSJ      -0.998200
     20 N21         -4.8410    -1.3310    -2.2460 n8         1 FSJ      -0.972200
     21 N33          6.0950     0.0050     0.4200 n7         1 FSJ      -0.873400
     22 F61         -6.2340     1.5440     2.2420 f          1 FSJ      -0.256000
     23 O11         -2.8450     0.2820    -1.0570 os         1 FSJ      -0.420000
     24 O23          3.7490     1.1650     1.6100 oh         1 FSJ      -0.731000
     25 O43          5.2050    -2.6600     0.6890 oh         1 FSJ      -0.711000
     26 O51         -4.8060     0.4390     0.0300 os         1 FSJ      -0.373100
     27 O52         -0.7230    -1.1190     0.0260 oh         1 FSJ      -0.727000
     28 O53          2.3890    -2.0170     0.4780 os         1 FSJ      -0.452000
     29 O62          1.8550     0.1270    -0.1320 os         1 FSJ      -0.507000
     30 H1          -3.2520    -0.7290     0.6820 h2         1 FSJ       0.057700
     31 H2           1.1440     2.1670    -1.5090 h1         1 FSJ       0.068700
     32 H3           1.7520    -0.6400     1.7770 h2         1 FSJ       0.081700
     33 H4          -3.3440    -2.3010    -1.1970 h1         1 FSJ       0.082700
     34 H5          -0.6820     3.2170     0.7010 hc         1 FSJ       0.055200
     35 H6          -0.3020     4.0340    -0.8050 hc         1 FSJ       0.055200
     36 H7           4.1460    -0.7460     2.0830 h1         1 FSJ       0.094700
     37 H8          -5.6860    -3.2010    -0.5260 hc         1 FSJ       0.056200
     38 H9          -4.5310    -2.9500     0.7560 hc         1 FSJ       0.056200
     39 H10         -1.3780     2.2010    -2.0850 h1         1 FSJ       0.030700
     40 H11          4.4250     0.1810    -0.7980 h1         1 FSJ       0.060700
     41 H12         -6.9410    -1.8420     1.1800 ha         1 FSJ       0.188000
     42 H13         -2.0200     1.0880     0.6680 h1         1 FSJ       0.071700
     43 H14         -0.2920     0.0530    -1.6270 h1         1 FSJ       0.052700
     44 H15          2.8530    -1.7630    -1.5320 h1         1 FSJ       0.052200
     45 H16          3.1400    -3.3520    -0.8320 h1         1 FSJ       0.052200
     46 H17         -7.1330     1.5740     0.4390 h1         1 FSJ       0.056700
     47 H18         -7.7160     0.3350     1.5700 h1         1 FSJ       0.056700
     48 H19          0.4820     0.9340     1.1880 h1         1 FSJ       0.054700
     49 H20          6.5300    -1.9260    -1.5290 hc         1 FSJ       0.044367
     50 H21          5.4060    -3.2140    -1.9570 hc         1 FSJ       0.044367
     51 H22          5.1010    -1.5680    -2.4990 hc         1 FSJ       0.044367
     52 H23          6.9870     0.3130    -1.5230 h1         1 FSJ       0.023700
     53 H24          6.2640     1.7240    -0.7510 h1         1 FSJ       0.023700
     54 H25          7.7810     1.0780    -0.1490 h1         1 FSJ       0.023700
     55 H26          2.3340     3.6800    -0.3390 hn         1 FSJ       0.406000
     56 H27          1.6690     3.3290     1.0930 hn         1 FSJ       0.406000
     57 H29         -5.0650    -2.1830    -2.7430 hn         1 FSJ       0.394500
     58 H30         -5.7300    -0.8720    -2.0850 hn         1 FSJ       0.394500
     59 H35          6.6520    -0.7820     0.7240 hn         1 FSJ       0.433000
     60 H37          3.2410     1.7030     0.9590 ho         1 FSJ       0.541000
     61 H38          5.2780    -3.5800     0.4130 ho         1 FSJ       0.501000
     62 H39          0.0170    -1.6930    -0.2010 ho         1 FSJ       0.525000
     63 N32         -2.8240     3.1240    -0.8110 n8         1 FSJ      -0.998200
     64 C93          6.8080     0.7980    -0.5550 c3         1 FSJ       0.165100
     65 H32         -2.7460     3.9930    -1.3240 hn         1 FSJ       0.408500
     66 H33         -3.6180     2.6400    -1.2090 hn         1 FSJ       0.408500
@<TRIPOS>BOND
     1     1     4 1   
     2     1    23 1   
     3     1    26 1   
     4     1    30 1   
     5     2     5 1   
     6     2    17 1   
     7     2    19 1   
     8     2    31 1   
     9     3     6 1   
    10     3    28 1   
    11     3    29 1   
    12     3    32 1   
    13     4     7 1   
    14     4    20 1   
    15     4    33 1   
    16     5     8 1   
    17     5    34 1   
    18     5    35 1   
    19     6     9 1   
    20     6    24 1   
    21     6    36 1   
    22     7    10 1   
    23     7    37 1   
    24     7    38 1   
    25     8    11 1   
    26     8    39 1   
    27     8    63 1   
    28     9    12 1   
    29     9    21 1   
    30     9    40 1   
    31    10    13 2   
    32    10    41 1   
    33    11    14 1   
    34    11    23 1   
    35    11    42 1   
    36    12    15 1   
    37    12    18 1   
    38    12    25 1   
    39    13    16 1   
    40    13    26 1   
    41    14    17 1   
    42    14    27 1   
    43    14    43 1   
    44    15    28 1   
    45    15    44 1   
    46    15    45 1   
    47    16    22 1   
    48    16    46 1   
    49    16    47 1   
    50    17    29 1   
    51    17    48 1   
    52    18    49 1   
    53    18    50 1   
    54    18    51 1   
    55    19    55 1   
    56    19    56 1   
    57    20    57 1   
    58    20    58 1   
    59    21    59 1   
    60    21    64 1   
    61    24    60 1   
    62    25    61 1   
    63    27    62 1   
    64    52    64 1   
    65    53    64 1   
    66    54    64 1   
    67    63    65 1   
    68    63    66 1   
@<TRIPOS>SUBSTRUCTURE
     1 FSJ         1 TEMP              0 ****  ****    0 ROOT
