@<TRIPOS>MOLECULE
FSK
   29    29     1     0     0
SMALL
No Charge or Current Charge


@<TRIPOS>ATOM
      1 N1          -1.1680     1.2930    -0.1460 n          1 FSK      -0.310000
      2 C6          -0.7050     2.7040    -0.0920 c3         1 FSK       0.085300
      3 O1          -3.3590     1.9060     0.3010 o          1 FSK      -0.559000
      4 O2          -2.6270    -2.4650    -0.2080 o          1 FSK      -0.528000
      5 N2          -2.9070    -0.2630     0.0440 ns         1 FSK      -0.464500
      6 C1          -2.5340     1.0340     0.0810 c          1 FSK       0.617000
      7 C2          -2.1390    -1.3460    -0.2050 c          1 FSK       0.583200
      8 C3          -0.7140    -1.0390    -0.4700 cc         1 FSK      -0.252400
      9 C4           0.1300    -2.2600    -0.8020 c3         1 FSK      -0.026900
     10 C5          -0.2550     0.2710    -0.4170 cd         1 FSK       0.120600
     11 C11          1.1590     0.5470    -0.6910 cf         1 FSK      -0.166000
     12 C12          2.1840     0.2450     0.1480 c2         1 FSK      -0.129400
     13 C14          2.0250    -0.4250     1.5050 c3         1 FSK       0.214800
     14 C13          3.6260     0.5860    -0.1770 c3         1 FSK       0.196800
     15 F            2.4800    -1.7020     1.4800 f          1 FSK      -0.263000
     16 O3           3.8340     1.9930    -0.0100 oh         1 FSK      -0.662000
     17 H1          -1.3590     3.3120     0.5460 h1         1 FSK       0.059033
     18 H2           0.3080     2.7580     0.3260 h1         1 FSK       0.059033
     19 H3          -0.6980     3.1270    -1.1040 h1         1 FSK       0.059033
     20 H4          -3.8830    -0.4440     0.2170 hn         1 FSK       0.345500
     21 H5          -0.3640    -2.8920    -1.5500 hc         1 FSK       0.051700
     22 H6           1.1100    -1.9980    -1.2150 hc         1 FSK       0.051700
     23 H7           0.2990    -2.8710     0.0930 hc         1 FSK       0.051700
     24 H8           1.3630     1.0760    -1.6240 ha         1 FSK       0.217000
     25 H9           2.5890     0.1280     2.2670 h1         1 FSK       0.057700
     26 H10          0.9730    -0.4400     1.8150 h1         1 FSK       0.057700
     27 H11          4.3100     0.0210     0.4710 h1         1 FSK       0.038200
     28 H12          3.8420     0.2900    -1.2130 h1         1 FSK       0.038200
     29 H13          4.7720     2.1710    -0.2440 ho         1 FSK       0.455000
@<TRIPOS>BOND
     1     1     2 1   
     2     1     6 1   
     3     1    10 1   
     4     2    17 1   
     5     2    18 1   
     6     2    19 1   
     7     3     6 2   
     8     4     7 2   
     9     5     6 1   
    10     5     7 1   
    11     5    20 1   
    12     7     8 1   
    13     8     9 1   
    14     8    10 2   
    15     9    21 1   
    16     9    22 1   
    17     9    23 1   
    18    10    11 1   
    19    11    12 2   
    20    11    24 1   
    21    12    13 1   
    22    12    14 1   
    23    13    15 1   
    24    13    25 1   
    25    13    26 1   
    26    14    16 1   
    27    14    27 1   
    28    14    28 1   
    29    16    29 1   
@<TRIPOS>SUBSTRUCTURE
     1 FSK         1 TEMP              0 ****  ****    0 ROOT
