@<TRIPOS>MOLECULE
FSK
   29    29     1     0     0
SMALL
abcg2


@<TRIPOS>ATOM
      1 N1          -1.1460     1.2810    -0.0280 n          1 FSK      -0.310000
      2 C6          -0.6380     2.6350     0.1620 c3         1 FSK       0.085300
      3 O1          -3.2970     1.9640     0.3200 o          1 FSK      -0.559000
      4 O2          -2.6020    -2.4280    -0.4370 o          1 FSK      -0.528000
      5 N2          -2.8950    -0.2250    -0.0590 ns         1 FSK      -0.464500
      6 C1          -2.4990     1.0760     0.0910 c          1 FSK       0.617000
      7 C2          -2.1040    -1.3190    -0.3380 c          1 FSK       0.583200
      8 C3          -0.6950    -1.0270    -0.5050 cc         1 FSK      -0.252400
      9 C4           0.1850    -2.1780    -0.8770 c3         1 FSK      -0.026900
     10 C5          -0.2740     0.2510    -0.3330 cd         1 FSK       0.120600
     11 C11          1.1310     0.6540    -0.5260 cf         1 FSK      -0.166000
     12 C12          2.1520     0.2920     0.2490 c2         1 FSK      -0.129400
     13 C14          1.9820    -0.5160     1.4980 c3         1 FSK       0.214800
     14 C13          3.5620     0.7100    -0.0370 c3         1 FSK       0.196800
     15 F            2.7210    -1.6960     1.4010 f          1 FSK      -0.263000
     16 O3           3.6270     1.4940    -1.1950 oh         1 FSK      -0.662000
     17 H1          -1.4160     3.2490     0.6000 h1         1 FSK       0.059033
     18 H2           0.2150     2.6230     0.8350 h1         1 FSK       0.059033
     19 H3          -0.3360     3.0770    -0.7870 h1         1 FSK       0.059033
     20 H4          -3.8890    -0.3900     0.0420 hn         1 FSK       0.345500
     21 H5          -0.2510    -2.7380    -1.7040 hc         1 FSK       0.051700
     22 H6           1.1770    -1.8520    -1.1780 hc         1 FSK       0.051700
     23 H7           0.3020    -2.8760    -0.0470 hc         1 FSK       0.051700
     24 H8           1.3080     1.3130    -1.3700 ha         1 FSK       0.217000
     25 H9           2.3620     0.0390     2.3580 h1         1 FSK       0.057700
     26 H10          0.9430    -0.7770     1.6840 h1         1 FSK       0.057700
     27 H11          3.9420     1.2470     0.8450 h1         1 FSK       0.038200
     28 H12          4.1740    -0.1970    -0.1250 h1         1 FSK       0.038200
     29 H13          4.5530     1.6300    -1.4150 ho         1 FSK       0.455000
@<TRIPOS>BOND
     1     1     2 1   
     2     1     6 1   
     3     1    10 1   
     4     2    17 1   
     5     2    18 1   
     6     2    19 1   
     7     3     6 2   
     8     4     7 2   
     9     5     6 1   
    10     5     7 1   
    11     5    20 1   
    12     7     8 1   
    13     8     9 1   
    14     8    10 2   
    15     9    21 1   
    16     9    22 1   
    17     9    23 1   
    18    10    11 1   
    19    11    12 2   
    20    11    24 1   
    21    12    13 1   
    22    12    14 1   
    23    13    15 1   
    24    13    25 1   
    25    13    26 1   
    26    14    16 1   
    27    14    27 1   
    28    14    28 1   
    29    16    29 1   
@<TRIPOS>SUBSTRUCTURE
     1 FSK         1 TEMP              0 ****  ****    0 ROOT
