@<TRIPOS>MOLECULE
FSL
   22    22     1     0     0
SMALL
bcc


@<TRIPOS>ATOM
      1 CAJ         -2.7060     0.8730     0.0850 c          1 FSL       0.943600
      2 OAN         -3.0740     0.1500     1.0330 o          1 FSL      -0.868300
      3 CAK         -1.1960     1.0240    -0.1520 c3         1 FSL      -0.159400
      4 CAL         -0.3500    -0.0890     0.4510 c3         1 FSL      -0.148400
      5 CAM         -0.7390    -1.4890    -0.0790 c          1 FSL       0.960600
      6 OAP         -0.4910    -2.4530     0.6740 o          1 FSL      -0.851300
      7 OAO         -1.2200    -1.5530    -1.2280 o          1 FSL      -0.851300
      8 CAQ          1.1180     0.1370     0.1890 ca         1 FSL       0.026700
      9 CAR          2.0180     0.3190     1.2380 ca         1 FSL      -0.137500
     10 CAS          3.3690     0.5430     0.9990 ca         1 FSL      -0.152000
     11 CAT          3.8490     0.5880    -0.3020 ca         1 FSL      -0.196000
     12 CAU          2.9650     0.4040    -1.3590 ca         1 FSL      -0.152000
     13 CAV          1.6180     0.1800    -1.1150 ca         1 FSL      -0.137500
     14 OAM         -3.4540     1.5250    -0.6750 o          1 FSL      -0.868300
     15 HAK1        -1.0090     1.1100    -1.2240 hc         1 FSL      -0.000300
     16 HAK2        -0.8840     1.9840     0.2800 hc         1 FSL      -0.000300
     17 HA          -0.4970    -0.0910     1.5330 hc         1 FSL       0.051700
     18 HAR          1.6550     0.2890     2.2590 ha         1 FSL       0.138500
     19 HB           0.9410     0.0310    -1.9480 ha         1 FSL       0.138500
     20 HC           4.0460     0.6830     1.8320 ha         1 FSL       0.089500
     21 HAT          4.9000     0.7620    -0.4930 ha         1 FSL       0.084000
     22 HAU          3.3270     0.4350    -2.3800 ha         1 FSL       0.089500
@<TRIPOS>BOND
     1     1     2 1   
     2     1     3 1   
     3     1    14 1   
     4     3     4 1   
     5     3    15 1   
     6     3    16 1   
     7     4     5 1   
     8     4     8 1   
     9     4    17 1   
    10     5     6 1   
    11     5     7 1   
    12     8     9 ar  
    13     8    13 ar  
    14     9    10 ar  
    15     9    18 1   
    16    10    11 ar  
    17    10    20 1   
    18    11    12 ar  
    19    11    21 1   
    20    12    13 ar  
    21    12    22 1   
    22    13    19 1   
@<TRIPOS>SUBSTRUCTURE
     1 FSL         1 TEMP              0 ****  ****    0 ROOT
