@<TRIPOS>MOLECULE
FSL
   22    22     1     0     0
SMALL
No Charge or Current Charge


@<TRIPOS>ATOM
      1 CAJ         -2.7220     0.9060     0.2860 c          1 FSL       0.733000
      2 OAN         -2.9840     1.4810     1.3320 o          1 FSL      -0.763000
      3 CAK         -1.2860     1.0190    -0.2730 c3         1 FSL      -0.159400
      4 CAL         -0.3650    -0.0830     0.3450 c3         1 FSL      -0.148400
      5 CAM         -0.7460    -1.5110    -0.1200 c          1 FSL       0.750000
      6 OAP         -1.0860    -2.3190     0.7340 o          1 FSL      -0.746000
      7 OAO         -0.6250    -1.8030    -1.3020 o          1 FSL      -0.746000
      8 CAQ          1.1300     0.1680     0.1140 ca         1 FSL       0.026700
      9 CAR          2.0440    -0.0670     1.1630 ca         1 FSL      -0.119500
     10 CAS          3.4200     0.1540     0.9780 ca         1 FSL      -0.134000
     11 CAT          3.8980     0.6110    -0.2600 ca         1 FSL      -0.178000
     12 CAU          3.0000     0.8440    -1.3140 ca         1 FSL      -0.134000
     13 CAV          1.6240     0.6220    -1.1290 ca         1 FSL      -0.119500
     14 OAM         -3.5330     0.2230    -0.3230 o          1 FSL      -0.763000
     15 HAK1        -1.2830     0.8700    -1.3600 hc         1 FSL      -0.000300
     16 HAK2        -0.8400     1.9730     0.0380 hc         1 FSL      -0.000300
     17 HA          -0.5380    -0.0480     1.4270 hc         1 FSL       0.051700
     18 HAR          1.6870    -0.4240     2.1260 ha         1 FSL       0.120500
     19 HB           0.9450     0.7980    -1.9590 ha         1 FSL       0.120500
     20 HC           4.1140    -0.0290     1.7940 ha         1 FSL       0.071500
     21 HAT          4.9620     0.7830    -0.4040 ha         1 FSL       0.066000
     22 HAU          3.3690     1.1930    -2.2750 ha         1 FSL       0.071500
@<TRIPOS>BOND
     1     1     2 1   
     2     1     3 1   
     3     1    14 1   
     4     3     4 1   
     5     3    15 1   
     6     3    16 1   
     7     4     5 1   
     8     4     8 1   
     9     4    17 1   
    10     5     6 1   
    11     5     7 1   
    12     8     9 ar  
    13     8    13 ar  
    14     9    10 ar  
    15     9    18 1   
    16    10    11 ar  
    17    10    20 1   
    18    11    12 ar  
    19    11    21 1   
    20    12    13 ar  
    21    12    22 1   
    22    13    19 1   
@<TRIPOS>SUBSTRUCTURE
     1 FSL         1 TEMP              0 ****  ****    0 ROOT
