@<TRIPOS>MOLECULE
FSN
   54    58     1     0     0
SMALL
No Charge or Current Charge


@<TRIPOS>ATOM
      1 O21          0.2530     1.1160    -0.4870 o          1 FSN      -0.515000
      2 C20          0.3930    -0.0850    -0.3030 c          1 FSN       0.578000
      3 N19          1.3550    -0.6480     0.5240 n          1 FSN      -0.375400
      4 C23          2.1940     0.2010     1.3950 c3         1 FSN       0.160300
      5 C24          3.4720     0.6850     0.7170 ca         1 FSN      -0.148300
      6 C32          3.4730     1.8840    -0.0250 ca         1 FSN      -0.062500
      7 C31          4.6510     2.3280    -0.6510 ca         1 FSN      -0.155500
      8 C30          5.8300     1.5770    -0.5360 ca         1 FSN       0.190000
      9 F29          6.9610     2.0050    -1.1380 f          1 FSN      -0.170000
     10 C26          5.8400     0.3860     0.2030 ca         1 FSN      -0.155500
     11 C25          4.6640    -0.0610     0.8310 ca         1 FSN      -0.062500
     12 C17          1.6000    -2.0090     0.4140 c          1 FSN       0.580000
     13 O18          2.5350    -2.6060     0.9290 o          1 FSN      -0.483000
     14 C16          0.5790    -2.5330    -0.6000 c5         1 FSN      -0.147700
     15 C15         -0.4500    -3.3780     0.2090 c5         1 FSN       0.162500
     16 N11         -1.4820    -2.3940     0.5560 n3         1 FSN      -0.695600
     17 C12         -2.6840    -3.2170     0.8500 c5         1 FSN       0.137800
     18 C13         -2.6350    -4.3870    -0.1880 c5         1 FSN      -0.110400
     19 C14         -1.1730    -4.3810    -0.7420 c5         1 FSN      -0.104400
     20 C10         -1.6940    -1.5580    -0.6590 c5         1 FSN       0.204800
     21 C7          -2.4470    -0.2440    -0.4040 ca         1 FSN      -0.001300
     22 C8          -2.9960     0.4610    -1.4920 ca         1 FSN      -0.081000
     23 C9          -3.6920     1.6660    -1.2960 ca         1 FSN      -0.059500
     24 C4          -3.8590     2.1960     0.0020 ca         1 FSN      -0.262900
     25 C5          -3.3120     1.4900     1.0960 ca         1 FSN      -0.059500
     26 C6          -2.6160     0.2860     0.8940 ca         1 FSN      -0.081000
     27 C3          -4.5950     3.4740     0.2130 ce         1 FSN       0.524400
     28 N1          -4.5060     4.4660    -0.7240 nv         1 FSN      -0.570700
     29 N2          -5.3510     3.6390     1.3410 nv         1 FSN      -0.554800
     30 C22         -0.2190    -1.2600    -1.0900 c5         1 FSN      -0.155700
     31 H231         1.6080     1.0680     1.7270 h1         1 FSN       0.070200
     32 H232         2.4540    -0.3630     2.3010 h1         1 FSN       0.070200
     33 H32          2.5630     2.4740    -0.1160 ha         1 FSN       0.125000
     34 H31          4.6510     3.2520    -1.2240 ha         1 FSN       0.138500
     35 H26          6.7580    -0.1900     0.2890 ha         1 FSN       0.138500
     36 H25          4.6800    -0.9850     1.4040 ha         1 FSN       0.125000
     37 H16          1.0960    -3.1180    -1.3690 hc         1 FSN       0.111700
     38 H15         -0.0250    -3.8870     1.0890 h1         1 FSN       0.106700
     39 H121        -3.6190    -2.6430     0.7880 h1         1 FSN       0.063700
     40 H122        -2.6210    -3.6210     1.8700 h1         1 FSN       0.063700
     41 H131        -3.3600    -4.2340    -0.9950 hc         1 FSN       0.057700
     42 H132        -2.8890    -5.3420     0.2860 hc         1 FSN       0.057700
     43 H141        -1.1500    -4.0710    -1.7940 hc         1 FSN       0.060700
     44 H142        -0.7120    -5.3750    -0.7020 hc         1 FSN       0.060700
     45 H10         -2.2100    -2.1060    -1.4600 h1         1 FSN       0.060700
     46 H8          -2.8820     0.0710    -2.5020 ha         1 FSN       0.152000
     47 H9          -4.1110     2.1760    -2.1630 ha         1 FSN       0.124500
     48 H5          -3.4080     1.8740     2.1100 ha         1 FSN       0.124500
     49 H6          -2.1990    -0.2320     1.7540 ha         1 FSN       0.152000
     50 HN11        -3.7740     4.3870    -1.4160 hn         1 FSN       0.377750
     51 HN12        -4.8160     5.3960    -0.4760 hn         1 FSN       0.377750
     52 HN21        -6.0120     4.4030     1.3680 hn         1 FSN       0.377750
     53 HN22        -5.5630     2.8170     1.8890 hn         1 FSN       0.377750
     54 H22         -0.1560    -1.0430    -2.1610 hc         1 FSN       0.102700
@<TRIPOS>BOND
     1     1     2 2   
     2     2     3 1   
     3     2    30 1   
     4     3     4 1   
     5     3    12 1   
     6     4     5 1   
     7     4    31 1   
     8     4    32 1   
     9     5     6 ar  
    10     5    11 ar  
    11     6     7 ar  
    12     6    33 1   
    13     7     8 ar  
    14     7    34 1   
    15     8     9 1   
    16     8    10 ar  
    17    10    11 ar  
    18    10    35 1   
    19    11    36 1   
    20    12    13 2   
    21    12    14 1   
    22    14    15 1   
    23    14    30 1   
    24    14    37 1   
    25    15    16 1   
    26    15    19 1   
    27    15    38 1   
    28    16    17 1   
    29    16    20 1   
    30    17    18 1   
    31    17    39 1   
    32    17    40 1   
    33    18    19 1   
    34    18    41 1   
    35    18    42 1   
    36    19    43 1   
    37    19    44 1   
    38    20    21 1   
    39    20    30 1   
    40    20    45 1   
    41    21    22 ar  
    42    21    26 ar  
    43    22    23 ar  
    44    22    46 1   
    45    23    24 ar  
    46    23    47 1   
    47    24    25 ar  
    48    24    27 1   
    49    25    26 ar  
    50    25    48 1   
    51    26    49 1   
    52    27    28 2   
    53    27    29 1   
    54    28    50 1   
    55    28    51 1   
    56    29    52 1   
    57    29    53 1   
    58    30    54 1   
@<TRIPOS>SUBSTRUCTURE
     1 FSN         1 TEMP              0 ****  ****    0 ROOT
