@<TRIPOS>MOLECULE
FSN
   54    58     1     0     0
SMALL
bcc


@<TRIPOS>ATOM
      1 O21          0.2600     1.0190    -0.9550 o          1 FSN      -0.590500
      2 C20          0.4380    -0.1060    -0.5630 c          1 FSN       0.720500
      3 N19          1.2670    -0.4420     0.4850 n          1 FSN      -0.509400
      4 C23          2.0010     0.5410     1.2640 c3         1 FSN       0.160300
      5 C24          3.3280     0.8830     0.6400 ca         1 FSN      -0.148300
      6 C32          3.4460     1.9630    -0.2310 ca         1 FSN      -0.080500
      7 C31          4.6590     2.2720    -0.8280 ca         1 FSN      -0.173500
      8 C30          5.7550     1.4820    -0.5410 ca         1 FSN       0.154900
      9 F29          6.9340     1.7720    -1.1150 f          1 FSN      -0.134900
     10 C26          5.6790     0.4060     0.3220 ca         1 FSN      -0.173500
     11 C25          4.4570     0.1150     0.9100 ca         1 FSN      -0.080500
     12 C17          1.3810    -1.8020     0.6660 c          1 FSN       0.722500
     13 O18          2.0430    -2.3220     1.5300 o          1 FSN      -0.558500
     14 C16          0.5580    -2.5030    -0.3920 c5         1 FSN      -0.147700
     15 C15         -0.5210    -3.3830     0.2160 c5         1 FSN       0.162500
     16 N11         -1.6170    -2.4530     0.4660 n3         1 FSN      -0.695600
     17 C12         -2.7930    -3.3050     0.5930 c5         1 FSN       0.137800
     18 C13         -2.6120    -4.4390    -0.4380 c5         1 FSN      -0.110400
     19 C14         -1.0940    -4.4850    -0.6990 c5         1 FSN      -0.104400
     20 C10         -1.6770    -1.5640    -0.6880 c5         1 FSN       0.204800
     21 C7          -2.4130    -0.2860    -0.3870 ca         1 FSN      -0.001300
     22 C8          -3.0350     0.4100    -1.4180 ca         1 FSN      -0.099000
     23 C9          -3.6730     1.6130    -1.1780 ca         1 FSN      -0.077500
     24 C4          -3.7090     2.1310     0.1160 ca         1 FSN      -0.262900
     25 C5          -3.1010     1.4320     1.1570 ca         1 FSN      -0.077500
     26 C6          -2.4560     0.2340     0.9020 ca         1 FSN      -0.099000
     27 C3          -4.3890     3.4070     0.3810 ce         1 FSN       0.524400
     28 N1          -4.3170     4.3660    -0.5090 nv         1 FSN      -0.470100
     29 N2          -5.0510     3.5630     1.5010 nv         1 FSN      -0.454200
     30 C22         -0.1890    -1.3700    -1.1000 c5         1 FSN      -0.155700
     31 H231         1.3760     1.4280     1.3560 h1         1 FSN       0.070200
     32 H232         2.1350     0.1350     2.2660 h1         1 FSN       0.070200
     33 H32          2.5820     2.5790    -0.4490 ha         1 FSN       0.143000
     34 H31          4.7490     3.1140    -1.5020 ha         1 FSN       0.156500
     35 H26          6.5560    -0.1910     0.5360 ha         1 FSN       0.156500
     36 H25          4.3890    -0.7220     1.5930 ha         1 FSN       0.143000
     37 H16          1.2360    -3.0560    -1.0450 hc         1 FSN       0.111700
     38 H15         -0.1960    -3.8290     1.1590 h1         1 FSN       0.106700
     39 H121        -3.7100    -2.7310     0.4530 h1         1 FSN       0.063700
     40 H122        -2.8190    -3.7110     1.6060 h1         1 FSN       0.063700
     41 H131        -3.1560    -4.2180    -1.3570 hc         1 FSN       0.057700
     42 H132        -3.0000    -5.3830    -0.0580 hc         1 FSN       0.057700
     43 H141        -0.8700    -4.2880    -1.7490 hc         1 FSN       0.060700
     44 H142        -0.6570    -5.4540    -0.4600 hc         1 FSN       0.060700
     45 H10         -2.1740    -2.0380    -1.5470 h1         1 FSN       0.060700
     46 H8          -3.0240     0.0090    -2.4240 ha         1 FSN       0.170000
     47 H9          -4.1660     2.1250    -1.9940 ha         1 FSN       0.142500
     48 H5          -3.1030     1.8280     2.1640 ha         1 FSN       0.142500
     49 H6          -1.9810    -0.3020     1.7120 ha         1 FSN       0.170000
     50 HN11        -3.7100     4.2840    -1.3080 hn         1 FSN       0.327450
     51 HN12        -4.8110     5.2390    -0.4000 hn         1 FSN       0.327450
     52 HN21        -5.4960     4.4360     1.7430 hn         1 FSN       0.327450
     53 HN22        -5.2190     2.7830     2.1160 hn         1 FSN       0.327450
     54 H22         -0.0940    -1.3790    -2.1850 hc         1 FSN       0.102700
@<TRIPOS>BOND
     1     1     2 2   
     2     2     3 1   
     3     2    30 1   
     4     3     4 1   
     5     3    12 1   
     6     4     5 1   
     7     4    31 1   
     8     4    32 1   
     9     5     6 ar  
    10     5    11 ar  
    11     6     7 ar  
    12     6    33 1   
    13     7     8 ar  
    14     7    34 1   
    15     8     9 1   
    16     8    10 ar  
    17    10    11 ar  
    18    10    35 1   
    19    11    36 1   
    20    12    13 2   
    21    12    14 1   
    22    14    15 1   
    23    14    30 1   
    24    14    37 1   
    25    15    16 1   
    26    15    19 1   
    27    15    38 1   
    28    16    17 1   
    29    16    20 1   
    30    17    18 1   
    31    17    39 1   
    32    17    40 1   
    33    18    19 1   
    34    18    41 1   
    35    18    42 1   
    36    19    43 1   
    37    19    44 1   
    38    20    21 1   
    39    20    30 1   
    40    20    45 1   
    41    21    22 ar  
    42    21    26 ar  
    43    22    23 ar  
    44    22    46 1   
    45    23    24 ar  
    46    23    47 1   
    47    24    25 ar  
    48    24    27 1   
    49    25    26 ar  
    50    25    48 1   
    51    26    49 1   
    52    27    28 2   
    53    27    29 1   
    54    28    50 1   
    55    28    51 1   
    56    29    52 1   
    57    29    53 1   
    58    30    54 1   
@<TRIPOS>SUBSTRUCTURE
     1 FSN         1 TEMP              0 ****  ****    0 ROOT
