@<TRIPOS>MOLECULE
FSP
   61    63     1     0     0
SMALL
bcc


@<TRIPOS>ATOM
      1 C1           0.8070    -4.7360     0.4140 c3         1 FSP      -0.091100
      2 C2          -0.4440    -3.9140     0.6890 c3         1 FSP      -0.076400
      3 C3          -0.3220    -2.4810     0.1860 c3         1 FSP      -0.074400
      4 C4          -1.5450    -1.6400     0.5290 c3         1 FSP      -0.087400
      5 C5          -1.5160    -0.2580    -0.1490 c3         1 FSP       0.042700
      6 N6          -0.3450     0.4890     0.2120 ns         1 FSP      -0.567900
      7 C7           0.4850     1.0320    -0.7030 c          1 FSP       0.760100
      8 O8           0.3440     0.9640    -1.9060 o          1 FSP      -0.583000
      9 O9           1.5020     1.6500    -0.1020 os         1 FSP      -0.437900
     10 C10          2.5680     2.1260    -0.9260 c3         1 FSP       0.176400
     11 C11          3.7040     2.5450    -0.0230 cy         1 FSP      -0.073000
     12 C12          4.1890     1.4180     0.9050 c3         1 FSP      -0.010100
     13 C13          4.5050     0.1200     0.2140 ca         1 FSP      -0.093300
     14 C14          5.7490    -0.1080    -0.3720 ca         1 FSP      -0.100500
     15 C15          6.0340    -1.2910    -1.0410 ca         1 FSP      -0.169000
     16 C16          5.0540    -2.2610    -1.1130 ca         1 FSP       0.134900
     17 F17          5.3170    -3.4100    -1.7590 f          1 FSP      -0.143900
     18 C18          3.8140    -2.0880    -0.5290 ca         1 FSP      -0.169000
     19 C19          3.5540    -0.8970     0.1330 ca         1 FSP      -0.100500
     20 C20          4.8570     3.2530    -0.7760 cy         1 FSP      -0.081900
     21 C21          4.8930     4.3210     0.3320 cy         1 FSP      -0.094400
     22 C22          3.4950     3.8550     0.7770 cy         1 FSP      -0.081900
     23 O26         -4.0500    -0.7140    -1.4000 o          1 FSP      -0.538100
     24 N27         -5.1670     0.6110     0.0770 ns         1 FSP      -0.445100
     25 C28         -6.4570     0.3860    -0.3600 cc         1 FSP       0.036300
     26 C29         -6.9860    -0.3260    -1.4180 cd         1 FSP      -0.309300
     27 C30         -8.3720    -0.1350    -1.2840 cd         1 FSP       0.317200
     28 N31         -8.6720     0.6200    -0.2470 nc         1 FSP      -0.515800
     29 N32         -7.4980     0.9260     0.3020 na         1 FSP      -0.038600
     30 C23         -2.7700     0.5010     0.2280 c          1 FSP       0.486100
     31 O24         -2.7900     1.3960     1.0320 o          1 FSP      -0.494100
     32 H11          1.6740    -4.3180     0.9300 hc         1 FSP       0.034700
     33 H12          0.6900    -5.7660     0.7500 hc         1 FSP       0.034700
     34 H13          1.0370    -4.7610    -0.6530 hc         1 FSP       0.034700
     35 H21         -1.3090    -4.3890     0.2170 hc         1 FSP       0.039200
     36 H22         -0.6490    -3.9080     1.7640 hc         1 FSP       0.039200
     37 H31          0.5730    -2.0220     0.6170 hc         1 FSP       0.047200
     38 H32A        -0.1730    -2.4860    -0.8990 hc         1 FSP       0.047200
     39 H41         -2.4460    -2.1650     0.2070 hc         1 FSP       0.055200
     40 H42         -1.6230    -1.5170     1.6130 hc         1 FSP       0.055200
     41 H5          -1.5060    -0.4110    -1.2280 h1         1 FSP       0.127700
     42 HN6         -0.1300     0.6070     1.1900 hn         1 FSP       0.334500
     43 H101         2.8930     1.3450    -1.6190 h1         1 FSP       0.057700
     44 H102         2.2300     2.9810    -1.5170 h1         1 FSP       0.057700
     45 H121         5.0770     1.7760     1.4340 hc         1 FSP       0.053700
     46 H122         3.4290     1.2470     1.6710 hc         1 FSP       0.053700
     47 H14          6.5240     0.6440    -0.2990 ha         1 FSP       0.133000
     48 H15          7.0040    -1.4560    -1.4910 ha         1 FSP       0.149500
     49 H18          3.0660    -2.8680    -0.5860 ha         1 FSP       0.149500
     50 H19          2.5870    -0.7650     0.6030 ha         1 FSP       0.133000
     51 H201         5.7670     2.6820    -0.9640 hc         1 FSP       0.054700
     52 H202         4.5210     3.6690    -1.7290 hc         1 FSP       0.054700
     53 H211         5.6570     4.1170     1.0820 hc         1 FSP       0.051200
     54 H212         4.9960     5.3590     0.0170 hc         1 FSP       0.051200
     55 H221         2.7030     4.4690     0.3460 hc         1 FSP       0.054700
     56 H222         3.3100     3.7550     1.8480 hc         1 FSP       0.054700
     57 H27         -5.0320     1.2460     0.8530 hn         1 FSP       0.343500
     58 H29         -6.4670    -0.8900    -2.1700 ha         1 FSP       0.187000
     59 H30         -9.1530    -0.5250    -1.9180 h4         1 FSP       0.039100
     60 H32         -7.4640     1.5000     1.1300 hn         1 FSP       0.318700
     61 C25         -4.0660     0.0550    -0.4620 c          1 FSP       0.576100
@<TRIPOS>BOND
     1     1     2 1   
     2     1    32 1   
     3     1    33 1   
     4     1    34 1   
     5     2     3 1   
     6     2    35 1   
     7     2    36 1   
     8     3     4 1   
     9     3    37 1   
    10     3    38 1   
    11     4     5 1   
    12     4    39 1   
    13     4    40 1   
    14     5     6 1   
    15     5    30 1   
    16     5    41 1   
    17     6     7 1   
    18     6    42 1   
    19     7     8 2   
    20     7     9 1   
    21     9    10 1   
    22    10    11 1   
    23    10    43 1   
    24    10    44 1   
    25    11    12 1   
    26    11    20 1   
    27    11    22 1   
    28    12    13 1   
    29    12    45 1   
    30    12    46 1   
    31    13    14 ar  
    32    13    19 ar  
    33    14    15 ar  
    34    14    47 1   
    35    15    16 ar  
    36    15    48 1   
    37    16    17 1   
    38    16    18 ar  
    39    18    19 ar  
    40    18    49 1   
    41    19    50 1   
    42    20    21 1   
    43    20    51 1   
    44    20    52 1   
    45    21    22 1   
    46    21    53 1   
    47    21    54 1   
    48    22    55 1   
    49    22    56 1   
    50    23    61 2   
    51    24    25 1   
    52    24    57 1   
    53    24    61 1   
    54    25    26 2   
    55    25    29 1   
    56    26    27 1   
    57    26    58 1   
    58    27    28 2   
    59    27    59 1   
    60    28    29 1   
    61    29    60 1   
    62    30    31 2   
    63    30    61 1   
@<TRIPOS>SUBSTRUCTURE
     1 FSP         1 TEMP              0 ****  ****    0 ROOT
