@<TRIPOS>MOLECULE
FSP
   61    63     1     0     0
SMALL
No Charge or Current Charge


@<TRIPOS>ATOM
      1 C1           1.0530    -4.5640    -1.0750 c3         1 FSP      -0.091100
      2 C2          -0.0250    -3.8230    -0.2590 c3         1 FSP      -0.076400
      3 C3          -0.2050    -2.3520    -0.6910 c3         1 FSP      -0.074400
      4 C4          -1.3120    -1.6160     0.1030 c3         1 FSP      -0.087400
      5 C5          -1.5750    -0.1540    -0.3560 c3         1 FSP       0.042700
      6 N6          -0.3930     0.7120    -0.1410 ns         1 FSP      -0.500900
      7 C7           0.5990     0.9300    -1.0530 c          1 FSP       0.644100
      8 O8           0.6230     0.4840    -2.1880 o          1 FSP      -0.534000
      9 O9           1.5850     1.6510    -0.4580 os         1 FSP      -0.461100
     10 C10          2.8090     1.8240    -1.1920 c3         1 FSP       0.199600
     11 C11          3.8360     2.5630    -0.2970 cy         1 FSP      -0.073000
     12 C12          4.0650     1.7390     1.0140 c3         1 FSP      -0.010100
     13 C13          4.3220     0.2450     0.8100 ca         1 FSP      -0.093300
     14 C14          5.5900    -0.2170     0.4020 ca         1 FSP      -0.082500
     15 C15          5.8170    -1.5930     0.2160 ca         1 FSP      -0.151000
     16 C16          4.7800    -2.5100     0.4470 ca         1 FSP       0.170000
     17 F17          5.0000    -3.8310     0.2710 f          1 FSP      -0.179000
     18 C18          3.5200    -2.0620     0.8660 ca         1 FSP      -0.151000
     19 C19          3.2900    -0.6870     1.0470 ca         1 FSP      -0.082500
     20 C20          5.1260     3.0620    -1.0540 cy         1 FSP      -0.081900
     21 C21          5.0870     4.3280    -0.1400 cy         1 FSP      -0.094400
     22 C22          3.5430     4.0970    -0.0850 cy         1 FSP      -0.081900
     23 O26         -4.3720    -0.7000    -1.1990 o          1 FSP      -0.538100
     24 N27         -5.3180     0.5200     0.5210 ns         1 FSP      -0.378100
     25 C28         -6.6820     0.3390     0.3130 cc         1 FSP      -0.014400
     26 C29         -7.3130    -0.3840    -0.6570 cd         1 FSP      -0.226000
     27 C30         -8.6990    -0.2560    -0.4390 cd         1 FSP       0.251900
     28 N31         -8.9820     0.5020     0.6070 nc         1 FSP      -0.515800
     29 N32         -7.7240     0.8670     1.0690 na         1 FSP      -0.038200
     30 C23         -2.8190     0.4500     0.3540 c          1 FSP       0.486100
     31 O24         -2.7190     1.2380     1.2980 o          1 FSP      -0.494100
     32 H11          2.0260    -4.0680    -0.9800 hc         1 FSP       0.034700
     33 H12          1.1580    -5.5960    -0.7220 hc         1 FSP       0.034700
     34 H13          0.7830    -4.5910    -2.1380 hc         1 FSP       0.034700
     35 H21         -0.9790    -4.3550    -0.3660 hc         1 FSP       0.039200
     36 H22          0.2440    -3.8600     0.8040 hc         1 FSP       0.039200
     37 H31          0.7500    -1.8310    -0.5590 hc         1 FSP       0.047200
     38 H32A        -0.4460    -2.3180    -1.7610 hc         1 FSP       0.047200
     39 H41         -2.2420    -2.1910     0.0080 hc         1 FSP       0.055200
     40 H42         -1.0520    -1.6180     1.1690 hc         1 FSP       0.055200
     41 H5          -1.8110    -0.1640    -1.4290 h1         1 FSP       0.127700
     42 HN6         -0.2660     1.1570     0.7610 hn         1 FSP       0.334500
     43 H101         3.2300     0.8560    -1.4960 h1         1 FSP       0.057700
     44 H102         2.6360     2.4170    -2.1000 h1         1 FSP       0.057700
     45 H121         4.9000     2.1600     1.5860 hc         1 FSP       0.053700
     46 H122         3.1940     1.8680     1.6680 hc         1 FSP       0.053700
     47 H14          6.4020     0.4860     0.2330 ha         1 FSP       0.115000
     48 H15          6.7930    -1.9480    -0.1020 ha         1 FSP       0.131500
     49 H18          2.7240    -2.7780     1.0540 ha         1 FSP       0.131500
     50 H19          2.3090    -0.3480     1.3720 ha         1 FSP       0.115000
     51 H201         6.0210     2.4390    -0.9610 hc         1 FSP       0.054700
     52 H202         4.9740     3.2790    -2.1180 hc         1 FSP       0.054700
     53 H211         5.6040     4.2230     0.8200 hc         1 FSP       0.051200
     54 H212         5.4130     5.2640    -0.6070 hc         1 FSP       0.051200
     55 H221         2.9920     4.5740    -0.9050 hc         1 FSP       0.054700
     56 H222         3.0540     4.3680     0.8570 hc         1 FSP       0.054700
     57 H27         -5.0330     1.0990     1.3070 hn         1 FSP       0.343500
     58 H29         -6.8550    -0.9560    -1.4540 ha         1 FSP       0.169000
     59 H30         -9.5070    -0.6930    -1.0140 h4         1 FSP       0.039100
     60 H32         -7.6210     1.4670     1.8870 hn         1 FSP       0.369000
     61 C25         -4.2440     0.0150    -0.2080 c          1 FSP       0.509100
@<TRIPOS>BOND
     1     1     2 1   
     2     1    32 1   
     3     1    33 1   
     4     1    34 1   
     5     2     3 1   
     6     2    35 1   
     7     2    36 1   
     8     3     4 1   
     9     3    37 1   
    10     3    38 1   
    11     4     5 1   
    12     4    39 1   
    13     4    40 1   
    14     5     6 1   
    15     5    30 1   
    16     5    41 1   
    17     6     7 1   
    18     6    42 1   
    19     7     8 2   
    20     7     9 1   
    21     9    10 1   
    22    10    11 1   
    23    10    43 1   
    24    10    44 1   
    25    11    12 1   
    26    11    20 1   
    27    11    22 1   
    28    12    13 1   
    29    12    45 1   
    30    12    46 1   
    31    13    14 ar  
    32    13    19 ar  
    33    14    15 ar  
    34    14    47 1   
    35    15    16 ar  
    36    15    48 1   
    37    16    17 1   
    38    16    18 ar  
    39    18    19 ar  
    40    18    49 1   
    41    19    50 1   
    42    20    21 1   
    43    20    51 1   
    44    20    52 1   
    45    21    22 1   
    46    21    53 1   
    47    21    54 1   
    48    22    55 1   
    49    22    56 1   
    50    23    61 2   
    51    24    25 1   
    52    24    57 1   
    53    24    61 1   
    54    25    26 2   
    55    25    29 1   
    56    26    27 1   
    57    26    58 1   
    58    27    28 2   
    59    27    59 1   
    60    28    29 1   
    61    29    60 1   
    62    30    31 2   
    63    30    61 1   
@<TRIPOS>SUBSTRUCTURE
     1 FSP         1 TEMP              0 ****  ****    0 ROOT
