@<TRIPOS>MOLECULE
FSQ
   26    26     1     0     0
SMALL
No Charge or Current Charge


@<TRIPOS>ATOM
      1 O16         -3.0910    -0.1290     1.1040 o          1 FSQ      -0.734000
      2 C14         -2.7210    -0.0490    -0.0580 c          1 FSQ       0.721000
      3 O15         -3.4850    -0.0490    -1.0130 o          1 FSQ      -0.734000
      4 C5          -1.2010     0.0570    -0.3430 c6         1 FSQ      -0.186700
      5 C6          -0.4220    -1.2060     0.1440 c6         1 FSQ      -0.083400
      6 C1           1.1090    -1.1350    -0.1500 c6         1 FSQ       0.178000
      7 O28          1.3170    -1.1820    -1.5760 oh         1 FSQ      -0.718000
      8 C21          1.8140    -2.3840     0.4550 c3         1 FSQ      -0.109100
      9 C4          -0.5820     1.3550     0.2530 c6         1 FSQ      -0.080400
     10 C3           0.9320     1.4550    -0.0620 c6         1 FSQ       0.125300
     11 O19          1.4820     2.6550     0.5170 oh         1 FSQ      -0.756000
     12 C2           1.6830     0.1970     0.4790 c6         1 FSQ       0.193300
     13 O17          3.0970     0.3710     0.2590 oh         1 FSQ      -0.665000
     14 H2          -1.0950     0.1150    -1.4360 hc         1 FSQ       0.035700
     15 H3          -0.5750    -1.3280     1.2250 hc         1 FSQ       0.049700
     16 H4          -0.8540    -2.1040    -0.3220 hc         1 FSQ       0.049700
     17 H5           0.9990    -2.0620    -1.8750 ho         1 FSQ       0.493000
     18 H6           1.3820    -3.3160     0.0710 hc         1 FSQ       0.032700
     19 H7           2.8850    -2.3970     0.2210 hc         1 FSQ       0.032700
     20 H8          -1.1080     2.2300    -0.1540 hc         1 FSQ       0.049200
     21 H9          -0.7360     1.3760     1.3410 hc         1 FSQ       0.049200
     22 H10          1.0510     1.4860    -1.1570 h1         1 FSQ       0.047700
     23 H11          0.9590     3.4110     0.1600 ho         1 FSQ       0.499000
     24 H12          1.5010     0.1510     1.5630 h1         1 FSQ       0.034700
     25 H13          3.2110     1.3470     0.3210 ho         1 FSQ       0.443000
     26 H14          1.7150    -2.4030     1.5470 hc         1 FSQ       0.032700
@<TRIPOS>BOND
     1     1     2 1   
     2     2     3 1   
     3     2     4 1   
     4     4     5 1   
     5     4     9 1   
     6     4    14 1   
     7     5     6 1   
     8     5    15 1   
     9     5    16 1   
    10     6     7 1   
    11     6     8 1   
    12     6    12 1   
    13     7    17 1   
    14     8    18 1   
    15     8    19 1   
    16     8    26 1   
    17     9    10 1   
    18     9    20 1   
    19     9    21 1   
    20    10    11 1   
    21    10    12 1   
    22    10    22 1   
    23    11    23 1   
    24    12    13 1   
    25    12    24 1   
    26    13    25 1   
@<TRIPOS>SUBSTRUCTURE
     1 FSQ         1 TEMP              0 ****  ****    0 ROOT
