@<TRIPOS>MOLECULE
FSQ
   26    26     1     0     0
SMALL
bcc


@<TRIPOS>ATOM
      1 O16         -3.1670    -1.2160     0.3200 o          1 FSQ      -0.839300
      2 C14         -2.7160    -0.1120    -0.0460 c          1 FSQ       0.931600
      3 O15         -3.3830     0.9270    -0.2280 o          1 FSQ      -0.839300
      4 C5          -1.2020    -0.0170    -0.3360 c6         1 FSQ      -0.186700
      5 C6          -0.4030    -1.1790     0.2410 c6         1 FSQ      -0.083400
      6 C1           1.0970    -1.1060    -0.0700 c6         1 FSQ       0.154800
      7 O28          1.3210    -1.1530    -1.4720 oh         1 FSQ      -0.595800
      8 C21          1.8220    -2.2630     0.6140 c3         1 FSQ      -0.109100
      9 C4          -0.6120     1.3090     0.1390 c6         1 FSQ      -0.080400
     10 C3           0.8710     1.4100    -0.1840 c6         1 FSQ       0.102100
     11 O19          1.4540     2.5870     0.3550 oh         1 FSQ      -0.633800
     12 C2           1.6400     0.2390     0.4170 c6         1 FSQ       0.170100
     13 O17          3.0150     0.3190     0.1240 oh         1 FSQ      -0.602800
     14 H2          -1.1020    -0.0500    -1.4300 hc         1 FSQ       0.035700
     15 H3          -0.5330    -1.2120     1.3280 hc         1 FSQ       0.049700
     16 H4          -0.7900    -2.1310    -0.1340 hc         1 FSQ       0.049700
     17 H5           0.8950    -1.9480    -1.8120 ho         1 FSQ       0.394000
     18 H6           1.4130    -3.2180     0.2750 hc         1 FSQ       0.032700
     19 H7           2.8890    -2.2570     0.3960 hc         1 FSQ       0.032700
     20 H8          -1.1450     2.1440    -0.3200 hc         1 FSQ       0.049200
     21 H9          -0.7450     1.4060     1.2240 hc         1 FSQ       0.049200
     22 H10          1.0020     1.3940    -1.2750 h1         1 FSQ       0.047700
     23 H11          1.1660     3.3360    -0.1740 ho         1 FSQ       0.400000
     24 H12          1.4760     0.2660     1.5090 h1         1 FSQ       0.034700
     25 H13          3.3050     1.2080     0.3540 ho         1 FSQ       0.404000
     26 H14          1.6990    -2.2210     1.6970 hc         1 FSQ       0.032700
@<TRIPOS>BOND
     1     1     2 1   
     2     2     3 1   
     3     2     4 1   
     4     4     5 1   
     5     4     9 1   
     6     4    14 1   
     7     5     6 1   
     8     5    15 1   
     9     5    16 1   
    10     6     7 1   
    11     6     8 1   
    12     6    12 1   
    13     7    17 1   
    14     8    18 1   
    15     8    19 1   
    16     8    26 1   
    17     9    10 1   
    18     9    20 1   
    19     9    21 1   
    20    10    11 1   
    21    10    12 1   
    22    10    22 1   
    23    11    23 1   
    24    12    13 1   
    25    12    24 1   
    26    13    25 1   
@<TRIPOS>SUBSTRUCTURE
     1 FSQ         1 TEMP              0 ****  ****    0 ROOT
