@<TRIPOS>MOLECULE
FSR
   38    38     1     0     0
SMALL
No Charge or Current Charge


@<TRIPOS>ATOM
      1 O1B         -0.2700     2.1820    -2.0380 o          1 FSR      -0.697000
      2 C1          -0.9830     2.6580    -1.1600 c          1 FSR       0.718000
      3 O1A         -1.2210     3.8630    -1.1970 o          1 FSR      -0.697000
      4 C2          -0.9390     1.9690     0.2890 c6         1 FSR       0.272000
      5 C3          -2.2320     1.1520     0.5770 c6         1 FSR       0.123300
      6 F1          -3.3640     1.8660     0.1180 f          1 FSR      -0.260000
      7 C4          -2.2090    -0.2260    -0.1380 c6         1 FSR       0.131300
      8 O4          -3.3940    -0.9840     0.1870 oh         1 FSR      -0.666000
      9 O6           0.2340     1.1320     0.5700 os         1 FSR      -0.474000
     10 C6           0.3340    -0.1420    -0.1250 c6         1 FSR       0.163300
     11 C7           1.7320    -0.8150     0.2210 c3         1 FSR       0.139300
     12 C8           2.9910     0.1330     0.1820 c3         1 FSR       0.148300
     13 C9           4.3470    -0.6230     0.2910 c3         1 FSR       0.122600
     14 O9           5.4310     0.3190     0.4150 oh         1 FSR      -0.704000
     15 O8           2.9810     1.0820     1.2620 oh         1 FSR      -0.601000
     16 O7           1.9800    -1.9400    -0.6600 oh         1 FSR      -0.720000
     17 C5          -0.9190    -1.0110     0.2500 c6         1 FSR       0.084700
     18 N5          -0.9260    -2.3580    -0.3640 ns         1 FSR      -0.485900
     19 C10         -0.5710    -3.5280     0.2690 c          1 FSR       0.617100
     20 O10         -0.2390    -3.5700     1.4460 o          1 FSR      -0.617100
     21 C11         -0.6400    -4.7730    -0.6080 c3         1 FSR      -0.180100
     22 H3          -2.3470     1.0090     1.6610 h1         1 FSR       0.052700
     23 H4          -2.1770    -0.0430    -1.2240 h1         1 FSR       0.084700
     24 H5          -4.1620    -0.3930     0.0210 ho         1 FSR       0.443000
     25 H6           0.3300     0.0320    -1.2070 h1         1 FSR       0.069700
     26 H7           1.6500    -1.1840     1.2530 h1         1 FSR       0.079700
     27 H8           2.9830     0.6660    -0.7790 h1         1 FSR       0.096700
     28 H9           4.3240    -1.2910     1.1620 h1         1 FSR       0.017700
     29 H10          4.4950    -1.2430    -0.6030 h1         1 FSR       0.017700
     30 H11          6.2690    -0.2010     0.4050 ho         1 FSR       0.486000
     31 H12          3.9320     1.3100     1.3760 ho         1 FSR       0.425000
     32 H13          2.0230    -1.6010    -1.5840 ho         1 FSR       0.495000
     33 H14         -0.9210    -1.1360     1.3430 h1         1 FSR       0.094700
     34 H15         -1.2160    -2.4450    -1.3300 hn         1 FSR       0.307500
     35 H16         -1.6430    -4.8470    -1.0450 hc         1 FSR       0.050700
     36 H17         -0.0110    -4.6200    -1.4930 hc         1 FSR       0.050700
     37 H18         -0.3650    -5.6860    -0.0690 hc         1 FSR       0.050700
     38 F2          -0.8880     2.9740     1.2900 f          1 FSR      -0.240000
@<TRIPOS>BOND
     1     1     2 1   
     2     2     3 1   
     3     2     4 1   
     4     4     5 1   
     5     4     9 1   
     6     4    38 1   
     7     5     6 1   
     8     5     7 1   
     9     5    22 1   
    10     7     8 1   
    11     7    17 1   
    12     7    23 1   
    13     8    24 1   
    14     9    10 1   
    15    10    11 1   
    16    10    17 1   
    17    10    25 1   
    18    11    12 1   
    19    11    16 1   
    20    11    26 1   
    21    12    13 1   
    22    12    15 1   
    23    12    27 1   
    24    13    14 1   
    25    13    28 1   
    26    13    29 1   
    27    14    30 1   
    28    15    31 1   
    29    16    32 1   
    30    17    18 1   
    31    17    33 1   
    32    18    19 1   
    33    18    34 1   
    34    19    20 2   
    35    19    21 1   
    36    21    35 1   
    37    21    36 1   
    38    21    37 1   
@<TRIPOS>SUBSTRUCTURE
     1 FSR         1 TEMP              0 ****  ****    0 ROOT
