@<TRIPOS>MOLECULE
FSR
   38    38     1     0     0
SMALL
bcc


@<TRIPOS>ATOM
      1 O1B         -1.0370     1.7000    -2.0650 o          1 FSR      -0.802300
      2 C1          -0.8480     2.5250    -1.1500 c          1 FSR       0.928600
      3 O1A         -0.6250     3.7360    -1.2430 o          1 FSR      -0.802300
      4 C2          -0.8650     1.9130     0.2780 c6         1 FSR       0.230100
      5 C3          -2.1180     1.1170     0.6080 c6         1 FSR       0.104600
      6 F1          -3.2320     1.8340     0.1740 f          1 FSR      -0.241300
      7 C4          -2.1380    -0.2650    -0.0120 c6         1 FSR       0.108100
      8 O4          -3.1870    -1.0370     0.5210 oh         1 FSR      -0.603800
      9 O6           0.2620     1.1400     0.5350 os         1 FSR      -0.427600
     10 C6           0.3880    -0.1260    -0.0790 c6         1 FSR       0.140100
     11 C7           1.7320    -0.7010     0.4070 c3         1 FSR       0.116100
     12 C8           2.9240     0.2530     0.1420 c3         1 FSR       0.125100
     13 C9           4.2450    -0.5130     0.1220 c3         1 FSR       0.099400
     14 O9           5.2850     0.4160    -0.0890 oh         1 FSR      -0.581800
     15 O8           2.9810     1.3080     1.0700 oh         1 FSR      -0.538800
     16 O7           1.9550    -1.9700    -0.1580 oh         1 FSR      -0.597800
     17 C5          -0.8280    -0.9990     0.2870 c6         1 FSR       0.084700
     18 N5          -0.8370    -2.2530    -0.4160 ns         1 FSR      -0.552900
     19 C10         -0.6520    -3.4510     0.1640 c          1 FSR       0.684100
     20 O10         -0.5340    -3.6040     1.3720 o          1 FSR      -0.617100
     21 C11         -0.5760    -4.6120    -0.7940 c3         1 FSR      -0.180100
     22 H3          -2.1970     1.0190     1.6960 h1         1 FSR       0.052700
     23 H4          -2.2390    -0.1590    -1.0980 h1         1 FSR       0.084700
     24 H5          -4.0050    -0.7920     0.0780 ho         1 FSR       0.404000
     25 H6           0.4360    -0.0190    -1.1720 h1         1 FSR       0.069700
     26 H7           1.6700    -0.8710     1.4890 h1         1 FSR       0.079700
     27 H8           2.7930     0.7260    -0.8390 h1         1 FSR       0.096700
     28 H9           4.3690    -1.0470     1.0770 h1         1 FSR       0.017700
     29 H10          4.2300    -1.2700    -0.6670 h1         1 FSR       0.017700
     30 H11          6.1050    -0.0790    -0.1710 ho         1 FSR       0.387000
     31 H12          3.0820     0.9340     1.9520 ho         1 FSR       0.386000
     32 H13          1.9530    -1.8950    -1.1180 ho         1 FSR       0.396000
     33 H14         -0.7850    -1.2180     1.3570 h1         1 FSR       0.094700
     34 H15         -0.9190    -2.2160    -1.4200 hn         1 FSR       0.307500
     35 H16         -0.9430    -4.3780    -1.7920 hc         1 FSR       0.050700
     36 H17          0.4650    -4.9260    -0.8830 hc         1 FSR       0.050700
     37 H18         -1.1400    -5.4570    -0.4030 hc         1 FSR       0.050700
     38 F2          -0.7710     2.9260     1.2030 f          1 FSR      -0.221300
@<TRIPOS>BOND
     1     1     2 1   
     2     2     3 1   
     3     2     4 1   
     4     4     5 1   
     5     4     9 1   
     6     4    38 1   
     7     5     6 1   
     8     5     7 1   
     9     5    22 1   
    10     7     8 1   
    11     7    17 1   
    12     7    23 1   
    13     8    24 1   
    14     9    10 1   
    15    10    11 1   
    16    10    17 1   
    17    10    25 1   
    18    11    12 1   
    19    11    16 1   
    20    11    26 1   
    21    12    13 1   
    22    12    15 1   
    23    12    27 1   
    24    13    14 1   
    25    13    28 1   
    26    13    29 1   
    27    14    30 1   
    28    15    31 1   
    29    16    32 1   
    30    17    18 1   
    31    17    33 1   
    32    18    19 1   
    33    18    34 1   
    34    19    20 2   
    35    19    21 1   
    36    21    35 1   
    37    21    36 1   
    38    21    37 1   
@<TRIPOS>SUBSTRUCTURE
     1 FSR         1 TEMP              0 ****  ****    0 ROOT
