@<TRIPOS>MOLECULE
FSS
   60    63     1     0     0
SMALL
No Charge or Current Charge


@<TRIPOS>ATOM
      1 N3           0.4010     0.9700    -1.0380 nb         1 FSS      -0.302000
      2 C4          -0.5980     0.5310    -0.2590 ca         1 FSS       0.419900
      3 C6           0.7500    -0.7170     1.0990 ca         1 FSS       0.182900
      4 C7           1.8660    -0.3030     0.3540 ca         1 FSS      -0.311300
      5 C8           1.6440     0.5480    -0.7290 ca         1 FSS       0.310900
      6 C10          4.0800     0.7260    -1.1590 c          1 FSS       0.633000
      7 C15          6.2850     0.2840     1.3960 ca         1 FSS       0.133000
      8 C17          8.3850    -0.8950     1.0270 ca         1 FSS      -0.087000
      9 C22         -3.1450     0.8700    -0.0990 ca         1 FSS       0.264000
     10 C24         -4.6860     0.6420     1.7880 ca         1 FSS      -0.145000
     11 C26         -5.5660     0.8800    -0.4630 ca         1 FSS      -0.145000
     12 N38         -1.8570     0.9680    -0.6440 nu         1 FSS      -0.923900
     13 C23         -3.3740     0.7220     1.2850 ca         1 FSS      -0.101500
     14 C25         -5.7870     0.7130     0.9210 ca         1 FSS       0.141100
     15 O28         -7.0480     0.6320     1.4770 os         1 FSS      -0.355100
     16 C29         -8.2450     0.5850     0.6860 c3         1 FSS       0.428800
     17 N30         -8.4040    -0.6350    -0.1490 n3         1 FSS      -0.806600
     18 C32         -8.6890    -1.8700     0.6380 c3         1 FSS       0.201300
     19 C33         -7.5900    -2.3110     1.6260 c3         1 FSS      -0.095600
     20 C31         -9.3910    -0.3980    -1.2340 c3         1 FSS       0.201300
     21 C34         -9.4150    -1.4720    -2.3400 c3         1 FSS      -0.095600
     22 C27         -4.2520     0.9610    -0.9630 ca         1 FSS      -0.101500
     23 N5          -0.4910    -0.3030     0.7900 nb         1 FSS      -0.248000
     24 N9           2.7440     1.0140    -1.5100 n          1 FSS      -0.390300
     25 C37          2.4840     1.9020    -2.6790 c3         1 FSS       0.101300
     26 O34          5.0140     1.2190    -1.7810 o          1 FSS      -0.549000
     27 N11          4.3360    -0.1350    -0.0670 n          1 FSS      -0.242400
     28 C14          5.6790    -0.4420     0.3470 ca         1 FSS      -0.033000
     29 C16          7.6260     0.0470     1.7420 ca         1 FSS      -0.101500
     30 C18          7.8020    -1.5890    -0.0460 ca         1 FSS      -0.101500
     31 C19          6.4620    -1.3540    -0.3960 ca         1 FSS       0.133000
     32 Cl35         5.7680    -2.2450    -1.7520 cl         1 FSS      -0.175500
     33 C12          3.2580    -0.7810     0.7050 c6         1 FSS       0.197300
     34 H6           0.8480    -1.3880     1.9510 h4         1 FSS       0.023100
     35 H17          9.4240    -1.0760     1.2950 ha         1 FSS       0.125000
     36 H24         -4.8490     0.5270     2.8560 ha         1 FSS       0.120500
     37 H26         -6.3950     0.9470    -1.1620 ha         1 FSS       0.120500
     38 HN38        -1.8340     1.3990    -1.5680 hn         1 FSS       0.509000
     39 H23         -2.5430     0.6880     1.9820 ha         1 FSS       0.123500
     40 H29         -9.1210     0.6700     1.3410 h2         1 FSS       0.047700
     41 H29A        -8.2640     1.4670     0.0330 h2         1 FSS       0.047700
     42 H32         -9.6300    -1.7540     1.1910 h1         1 FSS       0.026950
     43 H32A        -8.8280    -2.7150    -0.0470 h1         1 FSS       0.026950
     44 H33         -7.8020    -3.3220     1.9920 hc         1 FSS       0.041200
     45 H33A        -6.6090    -2.3220     1.1360 hc         1 FSS       0.041200
     46 H33B        -7.5460    -1.6480     2.4970 hc         1 FSS       0.041200
     47 H31        -10.4010    -0.3020    -0.8120 h1         1 FSS       0.026950
     48 H31A        -9.1610     0.5570    -1.7270 h1         1 FSS       0.026950
     49 H34         -8.4050    -1.6510    -2.7260 hc         1 FSS       0.041200
     50 H34A        -9.8270    -2.4190    -1.9730 hc         1 FSS       0.041200
     51 H34B       -10.0440    -1.1370    -3.1720 hc         1 FSS       0.041200
     52 H27         -4.0970     1.0870    -2.0310 ha         1 FSS       0.123500
     53 H37          2.2840     2.9220    -2.3280 h1         1 FSS       0.054700
     54 H37A         3.3370     1.9230    -3.3680 h1         1 FSS       0.054700
     55 H37B         1.6150     1.5410    -3.2450 h1         1 FSS       0.054700
     56 H16          8.0800     0.6010     2.5600 ha         1 FSS       0.136000
     57 H18          8.3910    -2.3080    -0.6110 ha         1 FSS       0.136000
     58 H12          3.4340    -0.6100     1.7760 h1         1 FSS       0.055200
     59 H12A         3.3130    -1.8660     0.5380 h1         1 FSS       0.055200
     60 Cl36         5.3830     1.5100     2.2890 cl         1 FSS      -0.175500
@<TRIPOS>BOND
     1     1     2 ar  
     2     1     5 ar  
     3     2    12 1   
     4     2    23 ar  
     5     3     4 ar  
     6     3    23 ar  
     7     3    34 1   
     8     4     5 ar  
     9     4    33 1   
    10     5    24 1   
    11     6    24 1   
    12     6    26 2   
    13     6    27 1   
    14     7    28 ar  
    15     7    29 ar  
    16     7    60 1   
    17     8    29 ar  
    18     8    30 ar  
    19     8    35 1   
    20     9    12 1   
    21     9    13 ar  
    22     9    22 ar  
    23    10    13 ar  
    24    10    14 ar  
    25    10    36 1   
    26    11    14 ar  
    27    11    22 ar  
    28    11    37 1   
    29    12    38 1   
    30    13    39 1   
    31    14    15 1   
    32    15    16 1   
    33    16    17 1   
    34    16    40 1   
    35    16    41 1   
    36    17    18 1   
    37    17    20 1   
    38    18    19 1   
    39    18    42 1   
    40    18    43 1   
    41    19    44 1   
    42    19    45 1   
    43    19    46 1   
    44    20    21 1   
    45    20    47 1   
    46    20    48 1   
    47    21    49 1   
    48    21    50 1   
    49    21    51 1   
    50    22    52 1   
    51    24    25 1   
    52    25    53 1   
    53    25    54 1   
    54    25    55 1   
    55    27    28 1   
    56    27    33 1   
    57    28    31 ar  
    58    29    56 1   
    59    30    31 ar  
    60    30    57 1   
    61    31    32 1   
    62    33    58 1   
    63    33    59 1   
@<TRIPOS>SUBSTRUCTURE
     1 FSS         1 TEMP              0 ****  ****    0 ROOT
