@<TRIPOS>MOLECULE
FSS
   60    63     1     0     0
SMALL
abcg2


@<TRIPOS>ATOM
      1 N3           0.2830     1.0810    -1.0800 nb         1 FSS      -0.302000
      2 C4          -0.7260     0.7240    -0.2750 ca         1 FSS       0.419900
      3 C6           0.5540    -0.6680     0.9480 ca         1 FSS       0.182900
      4 C7           1.6540    -0.4100     0.1660 ca         1 FSS      -0.311300
      5 C8           1.4520     0.5210    -0.8570 ca         1 FSS       0.310900
      6 C10          3.8190     0.6680    -1.2690 c          1 FSS       0.633000
      7 C15          5.8430     0.1930     1.3170 ca         1 FSS       0.133000
      8 C17          7.9340    -0.9290     1.0440 ca         1 FSS      -0.087000
      9 C22         -3.1720     1.1030     0.0020 ca         1 FSS       0.264000
     10 C24         -4.6620     0.6910     1.8520 ca         1 FSS      -0.145000
     11 C26         -5.5770     1.0890    -0.3240 ca         1 FSS      -0.145000
     12 N38         -1.9130     1.3080    -0.5740 nu         1 FSS      -0.923900
     13 C23         -3.3780     0.8430     1.3570 ca         1 FSS      -0.101500
     14 C25         -5.7790     0.8180     1.0270 ca         1 FSS       0.141100
     15 O28         -6.9840     0.7010     1.6250 os         1 FSS      -0.355100
     16 C29         -8.1480     0.5340     0.8180 c3         1 FSS       0.428800
     17 N30         -8.1280    -0.6740     0.0670 n3         1 FSS      -0.806600
     18 C32         -8.7080    -1.8240     0.7430 c3         1 FSS       0.201300
     19 C33         -7.9890    -2.2200     2.0220 c3         1 FSS      -0.095600
     20 C31         -8.5180    -0.5790    -1.3310 c3         1 FSS       0.201300
     21 C34         -7.7170    -1.5180    -2.2190 c3         1 FSS      -0.095600
     22 C27         -4.2890     1.2240    -0.8210 ca         1 FSS      -0.101500
     23 N5          -0.6400    -0.1170     0.7480 nb         1 FSS      -0.248000
     24 N9           2.5080     0.8800    -1.6670 n          1 FSS      -0.390300
     25 C37          2.2720     1.7630    -2.8000 c3         1 FSS       0.101300
     26 O34          4.7470     1.2370    -1.8090 o          1 FSS      -0.549000
     27 N11          4.0080    -0.1900    -0.2270 n          1 FSS      -0.242400
     28 C14          5.3340    -0.4260     0.1790 ca         1 FSS      -0.033000
     29 C16          7.1340    -0.0500     1.7570 ca         1 FSS      -0.101500
     30 C18          7.4550    -1.5660    -0.0910 ca         1 FSS      -0.101500
     31 C19          6.1600    -1.3110    -0.5100 ca         1 FSS       0.133000
     32 CL35         5.5450    -2.1010    -1.9140 cl         1 FSS      -0.175500
     33 C12          2.9780    -1.0770     0.2960 c6         1 FSS       0.197300
     34 H6           0.6280    -1.3670     1.7760 h4         1 FSS       0.023100
     35 H17          8.9440    -1.1230     1.3770 ha         1 FSS       0.125000
     36 H24         -4.8030     0.4860     2.9060 ha         1 FSS       0.120500
     37 H26         -6.3980     1.1990    -1.0170 ha         1 FSS       0.120500
     38 HN38        -1.8990     1.8480    -1.4250 hn         1 FSS       0.509000
     39 H23         -2.5410     0.7530     2.0320 ha         1 FSS       0.123500
     40 H29         -8.9650     0.5770     1.5460 h2         1 FSS       0.047700
     41 H29A        -8.2600     1.3920     0.1470 h2         1 FSS       0.047700
     42 H32         -9.7750    -1.6560     0.9590 h1         1 FSS       0.026950
     43 H32A        -8.6670    -2.6690     0.0530 h1         1 FSS       0.026950
     44 H33         -8.4270    -3.1370     2.4170 hc         1 FSS       0.041200
     45 H33A        -6.9300    -2.4010     1.8350 hc         1 FSS       0.041200
     46 H33B        -8.0680    -1.4600     2.7990 hc         1 FSS       0.041200
     47 H31         -9.5940    -0.7680    -1.4640 h1         1 FSS       0.026950
     48 H31A        -8.3520     0.4460    -1.6710 h1         1 FSS       0.026950
     49 H34         -6.6500    -1.3210    -2.1150 hc         1 FSS       0.041200
     50 H34A        -7.8920    -2.5660    -1.9730 hc         1 FSS       0.041200
     51 H34B        -7.9910    -1.3810    -3.2650 hc         1 FSS       0.041200
     52 H27         -4.1570     1.4240    -1.8770 ha         1 FSS       0.123500
     53 H37          2.1890     2.8050    -2.4920 h1         1 FSS       0.054700
     54 H37A         3.0900     1.6650    -3.5050 h1         1 FSS       0.054700
     55 H37B         1.3490     1.4710    -3.2910 h1         1 FSS       0.054700
     56 H16          7.5110     0.4440     2.6420 ha         1 FSS       0.136000
     57 H18          8.0810    -2.2540    -0.6420 ha         1 FSS       0.136000
     58 H12          3.2010    -1.2890     1.3420 h1         1 FSS       0.055200
     59 H12A         2.9940    -2.0320    -0.2410 h1         1 FSS       0.055200
     60 CL36         4.8300     1.2800     2.1900 cl         1 FSS      -0.175500
@<TRIPOS>BOND
     1     1     2 ar  
     2     1     5 ar  
     3     2    12 1   
     4     2    23 ar  
     5     3     4 ar  
     6     3    23 ar  
     7     3    34 1   
     8     4     5 ar  
     9     4    33 1   
    10     5    24 1   
    11     6    24 1   
    12     6    26 2   
    13     6    27 1   
    14     7    28 ar  
    15     7    29 ar  
    16     7    60 1   
    17     8    29 ar  
    18     8    30 ar  
    19     8    35 1   
    20     9    12 1   
    21     9    13 ar  
    22     9    22 ar  
    23    10    13 ar  
    24    10    14 ar  
    25    10    36 1   
    26    11    14 ar  
    27    11    22 ar  
    28    11    37 1   
    29    12    38 1   
    30    13    39 1   
    31    14    15 1   
    32    15    16 1   
    33    16    17 1   
    34    16    40 1   
    35    16    41 1   
    36    17    18 1   
    37    17    20 1   
    38    18    19 1   
    39    18    42 1   
    40    18    43 1   
    41    19    44 1   
    42    19    45 1   
    43    19    46 1   
    44    20    21 1   
    45    20    47 1   
    46    20    48 1   
    47    21    49 1   
    48    21    50 1   
    49    21    51 1   
    50    22    52 1   
    51    24    25 1   
    52    25    53 1   
    53    25    54 1   
    54    25    55 1   
    55    27    28 1   
    56    27    33 1   
    57    28    31 ar  
    58    29    56 1   
    59    30    31 ar  
    60    30    57 1   
    61    31    32 1   
    62    33    58 1   
    63    33    59 1   
@<TRIPOS>SUBSTRUCTURE
     1 FSS         1 TEMP              0 ****  ****    0 ROOT
