@<TRIPOS>MOLECULE
FST
   35    35     1     0     0
SMALL
bcc


@<TRIPOS>ATOM
      1 C1           5.3000    -0.7710    -0.9430 c3         1 FST      -0.061800
      2 S2           4.6070     0.4030     0.2430 sx         1 FST       0.217400
      3 O3           4.8220     1.7720    -0.3500 o          1 FST      -0.484200
      4 C4           2.8840    -0.0220    -0.0080 ca         1 FST      -0.070500
      5 C5           2.3460    -1.0950     0.6870 ca         1 FST      -0.051500
      6 C6           1.0110    -1.4230     0.5120 ca         1 FST      -0.144500
      7 C7           0.2380    -0.6620    -0.3530 ca         1 FST       0.136100
      8 C8           0.7690     0.4230    -1.0340 ca         1 FST      -0.144500
      9 C9           2.1060     0.7470    -0.8570 ca         1 FST      -0.051500
     10 O10         -1.0780    -1.0110    -0.5600 os         1 FST      -0.429500
     11 P11         -2.2440    -0.3610     0.3530 p5         1 FST       1.244200
     12 S12         -2.1260    -0.6730     2.2450 s          1 FST      -0.626000
     13 O13         -2.2620     1.1680    -0.0910 os         1 FST      -0.559700
     14 C14         -2.1280     2.2840     0.8150 c3         1 FST       0.190900
     15 C15         -1.8660     3.5200    -0.0070 c3         1 FST      -0.097100
     16 O16         -3.4460    -1.0330    -0.4350 os         1 FST      -0.559700
     17 C17         -4.8100    -0.8010    -0.0250 c3         1 FST       0.190900
     18 C18         -5.7050    -1.7060    -0.8330 c3         1 FST      -0.097100
     19 H1           6.3820    -0.6530    -0.9260 h1         1 FST       0.080367
     20 H1A          5.0410    -1.7860    -0.6500 h1         1 FST       0.080367
     21 H5           2.9550    -1.6790     1.3670 ha         1 FST       0.153500
     22 H6           0.5770    -2.2630     1.0380 ha         1 FST       0.159500
     23 H8           0.1510     1.0020    -1.7070 ha         1 FST       0.159500
     24 H9           2.5320     1.5920    -1.3800 ha         1 FST       0.153500
     25 H14         -3.0490     2.3800     1.3920 h1         1 FST       0.052950
     26 H14A        -1.3110     2.0980     1.5130 h1         1 FST       0.052950
     27 H15         -1.7910     4.3790     0.6590 hc         1 FST       0.053033
     28 H15A        -0.9290     3.4410    -0.5590 hc         1 FST       0.053033
     29 H15B        -2.6740     3.7120    -0.7130 hc         1 FST       0.053033
     30 H17         -4.9080    -1.0080     1.0430 h1         1 FST       0.052950
     31 H17A        -5.0610     0.2480    -0.1950 h1         1 FST       0.052950
     32 H18         -5.6120    -1.5120    -1.9010 hc         1 FST       0.053033
     33 H18A        -5.4860    -2.7560    -0.6440 hc         1 FST       0.053033
     34 H18B        -6.7410    -1.5230    -0.5480 hc         1 FST       0.053033
     35 H1B          4.9110    -0.5480    -1.9350 h1         1 FST       0.080367
@<TRIPOS>BOND
     1     1     2 1   
     2     1    19 1   
     3     1    20 1   
     4     1    35 1   
     5     2     3 2   
     6     2     4 1   
     7     4     5 ar  
     8     4     9 ar  
     9     5     6 ar  
    10     5    21 1   
    11     6     7 ar  
    12     6    22 1   
    13     7     8 ar  
    14     7    10 1   
    15     8     9 ar  
    16     8    23 1   
    17     9    24 1   
    18    10    11 1   
    19    11    12 2   
    20    11    13 1   
    21    11    16 1   
    22    13    14 1   
    23    14    15 1   
    24    14    25 1   
    25    14    26 1   
    26    15    27 1   
    27    15    28 1   
    28    15    29 1   
    29    16    17 1   
    30    17    18 1   
    31    17    30 1   
    32    17    31 1   
    33    18    32 1   
    34    18    33 1   
    35    18    34 1   
@<TRIPOS>SUBSTRUCTURE
     1 FST         1 TEMP              0 ****  ****    0 ROOT
