@<TRIPOS>MOLECULE
FST
   35    35     1     0     0
SMALL
No Charge or Current Charge


@<TRIPOS>ATOM
      1 C1           5.0310     0.3230    -1.2880 c3         1 FST      -0.061800
      2 S2           4.8710    -0.5600     0.3340 sx         1 FST       0.244200
      3 O3           5.2680     0.4120     1.4320 o          1 FST      -0.511000
      4 C4           3.0430    -0.6930     0.3380 ca         1 FST      -0.070500
      5 C5           2.4360    -1.9160     0.0050 ca         1 FST      -0.033500
      6 C6           1.0340    -2.0230    -0.0010 ca         1 FST      -0.126500
      7 C7           0.2340    -0.9140     0.3220 ca         1 FST      -0.009000
      8 C8           0.8460     0.3130     0.6610 ca         1 FST      -0.126500
      9 C9           2.2490     0.4200     0.6670 ca         1 FST      -0.033500
     10 O10         -1.1350    -1.0810     0.2960 os         1 FST      -0.284400
     11 P11         -2.3190     0.0110     0.5110 p5         1 FST       1.244200
     12 S12         -2.4930     0.7270     2.3310 s          1 FST      -0.626000
     13 O13         -2.0520     1.0970    -0.6670 os         1 FST      -0.382900
     14 C14         -2.1230     2.5100    -0.4370 c3         1 FST       0.014100
     15 C15         -1.6050     3.2070    -1.7050 c3         1 FST      -0.097100
     16 O16         -3.6250    -0.7600    -0.0710 os         1 FST      -0.382900
     17 C17         -4.8400    -0.8720     0.6820 c3         1 FST       0.014100
     18 C18         -5.8560    -1.6240    -0.1940 c3         1 FST      -0.097100
     19 H1           6.0890     0.5620    -1.4510 h1         1 FST       0.080367
     20 H1A          4.6630    -0.3380    -2.0820 h1         1 FST       0.080367
     21 H5           3.0480    -2.7790    -0.2490 ha         1 FST       0.135500
     22 H6           0.5680    -2.9710    -0.2600 ha         1 FST       0.141500
     23 H8           0.2610     1.1890     0.9270 ha         1 FST       0.141500
     24 H9           2.7180     1.3660     0.9290 ha         1 FST       0.135500
     25 H14         -3.1590     2.8220    -0.2420 h1         1 FST       0.052950
     26 H14A        -1.5030     2.8070     0.4200 h1         1 FST       0.052950
     27 H15         -1.6410     4.2960    -1.5830 hc         1 FST       0.053033
     28 H15A        -0.5670     2.9180    -1.9080 hc         1 FST       0.053033
     29 H15B        -2.2190     2.9380    -2.5730 hc         1 FST       0.053033
     30 H17         -4.6750    -1.4310     1.6130 h1         1 FST       0.052950
     31 H17A        -5.2390     0.1200     0.9350 h1         1 FST       0.052950
     32 H18         -6.0460    -1.0750    -1.1240 hc         1 FST       0.053033
     33 H18A        -5.4840    -2.6240    -0.4470 hc         1 FST       0.053033
     34 H18B        -6.8080    -1.7360     0.3380 hc         1 FST       0.053033
     35 H1B          4.4350     1.2420    -1.2490 h1         1 FST       0.080367
@<TRIPOS>BOND
     1     1     2 1   
     2     1    19 1   
     3     1    20 1   
     4     1    35 1   
     5     2     3 2   
     6     2     4 1   
     7     4     5 ar  
     8     4     9 ar  
     9     5     6 ar  
    10     5    21 1   
    11     6     7 ar  
    12     6    22 1   
    13     7     8 ar  
    14     7    10 1   
    15     8     9 ar  
    16     8    23 1   
    17     9    24 1   
    18    10    11 1   
    19    11    12 2   
    20    11    13 1   
    21    11    16 1   
    22    13    14 1   
    23    14    15 1   
    24    14    25 1   
    25    14    26 1   
    26    15    27 1   
    27    15    28 1   
    28    15    29 1   
    29    16    17 1   
    30    17    18 1   
    31    17    30 1   
    32    17    31 1   
    33    18    32 1   
    34    18    33 1   
    35    18    34 1   
@<TRIPOS>SUBSTRUCTURE
     1 FST         1 TEMP              0 ****  ****    0 ROOT
