@<TRIPOS>MOLECULE
FSU
   34    35     1     0     0
SMALL
abcg2


@<TRIPOS>ATOM
      1 C1           0.3040    -0.4430    -0.3170 c          1 FSU       0.578600
      2 N2          -0.6470     0.4950    -0.5410 n          1 FSU      -0.420800
      3 C3           1.5190     0.2990     0.0910 ca         1 FSU      -0.123600
      4 C4           1.2370     1.6540     0.0720 ca         1 FSU      -0.088300
      5 C5           2.7860    -0.1750     0.4030 ca         1 FSU      -0.082600
      6 C6          -0.1940     1.8500    -0.3150 c5         1 FSU       0.143300
      7 C7           3.0830    -1.6410     0.5280 c          1 FSU       0.625700
      8 O8           0.1760    -1.6480    -0.4510 o          1 FSU      -0.524000
      9 O9           2.6250    -2.3000     1.4470 o          1 FSU      -0.571100
     10 N10          3.9150    -2.1200    -0.4030 nt         1 FSU      -0.603000
     11 C11         -1.9950     0.1950    -0.9520 c3         1 FSU       0.114000
     12 C12          2.2120     2.5900     0.3710 ca         1 FSU      -0.089000
     13 C13          3.7730     0.7620     0.6850 ca         1 FSU      -0.100000
     14 C14         -2.9940     0.2400     0.1990 c3         1 FSU      -0.105400
     15 C15          3.4860     2.1260     0.6740 ca         1 FSU      -0.092000
     16 O16         -5.2840    -0.0310     0.7980 os         1 FSU      -0.452000
     17 C17         -4.3850    -0.1290    -0.2780 c3         1 FSU       0.161600
     18 C18         -6.5980    -0.3710     0.4370 c3         1 FSU       0.146900
     19 H61         -0.2960     2.4570    -1.2190 h1         1 FSU       0.062200
     20 HN10         4.2430    -1.5500    -1.1640 hn         1 FSU       0.316000
     21 HN1A         4.2020    -3.0860    -0.3880 hn         1 FSU       0.316000
     22 H11         -2.2840     0.9040    -1.7320 h1         1 FSU       0.055200
     23 H11A        -1.9930    -0.7950    -1.4100 h1         1 FSU       0.055200
     24 H12          1.9980     3.6500     0.3630 ha         1 FSU       0.122000
     25 H13          4.7740     0.4330     0.9320 ha         1 FSU       0.123000
     26 H14         -2.6760    -0.4530     0.9820 hc         1 FSU       0.061700
     27 H14A        -3.0150     1.2420     0.6370 hc         1 FSU       0.061700
     28 H15          4.2720     2.8320     0.9050 ha         1 FSU       0.119000
     29 H17         -4.6910     0.5370    -1.0990 h1         1 FSU       0.019700
     30 H17A        -4.3810    -1.1490    -0.6900 h1         1 FSU       0.019700
     31 H18         -7.2320    -0.2480     1.3150 h1         1 FSU       0.028367
     32 H18A        -6.9850     0.2740    -0.3620 h1         1 FSU       0.028367
     33 H18B        -6.6770    -1.4100     0.0960 h1         1 FSU       0.028367
     34 H62         -0.7640     2.3440     0.4780 h1         1 FSU       0.062200
@<TRIPOS>BOND
     1     1     2 1   
     2     1     3 1   
     3     1     8 2   
     4     2     6 1   
     5     2    11 1   
     6     3     4 ar  
     7     3     5 ar  
     8     4     6 1   
     9     4    12 ar  
    10     5     7 1   
    11     5    13 ar  
    12     6    19 1   
    13     6    34 1   
    14     7     9 2   
    15     7    10 1   
    16    10    20 1   
    17    10    21 1   
    18    11    14 1   
    19    11    22 1   
    20    11    23 1   
    21    12    15 ar  
    22    12    24 1   
    23    13    15 ar  
    24    13    25 1   
    25    14    17 1   
    26    14    26 1   
    27    14    27 1   
    28    15    28 1   
    29    16    17 1   
    30    16    18 1   
    31    17    29 1   
    32    17    30 1   
    33    18    31 1   
    34    18    32 1   
    35    18    33 1   
@<TRIPOS>SUBSTRUCTURE
     1 FSU         1 TEMP              0 ****  ****    0 ROOT
