@<TRIPOS>MOLECULE
FSU
   34    35     1     0     0
SMALL
No Charge or Current Charge


@<TRIPOS>ATOM
      1 C1           0.2550    -0.4250    -0.4350 c          1 FSU       0.578600
      2 N2          -0.7170     0.5760    -0.5980 n          1 FSU      -0.420800
      3 C3           1.5100     0.2620    -0.0160 ca         1 FSU      -0.123600
      4 C4           1.2440     1.6280    -0.0070 ca         1 FSU      -0.088300
      5 C5           2.8020    -0.2490     0.2850 ca         1 FSU      -0.082600
      6 C6          -0.2000     1.9510    -0.3540 c5         1 FSU       0.143300
      7 C7           3.1250    -1.7310     0.3470 c          1 FSU       0.625700
      8 O8           0.0800    -1.6150    -0.6530 o          1 FSU      -0.524000
      9 O9           2.3370    -2.5840     0.7200 o          1 FSU      -0.571100
     10 N10          4.3940    -2.1000     0.0630 nt         1 FSU      -0.603000
     11 C11         -2.0920     0.2640    -1.0310 c3         1 FSU       0.114000
     12 C12          2.2510     2.5570     0.2830 ca         1 FSU      -0.089000
     13 C13          3.8170     0.7030     0.5670 ca         1 FSU      -0.100000
     14 C14         -3.0840     0.2160     0.1450 c3         1 FSU      -0.105400
     15 C15          3.5440     2.0870     0.5650 ca         1 FSU      -0.092000
     16 O16         -5.3490    -0.1200     0.8670 os         1 FSU      -0.452000
     17 C17         -4.5190    -0.1040    -0.3050 c3         1 FSU       0.161600
     18 C18         -6.7340    -0.4090     0.6110 c3         1 FSU       0.146900
     19 H61         -0.2720     2.5810    -1.2510 h1         1 FSU       0.062200
     20 HN10         5.0640    -1.4120    -0.2460 hn         1 FSU       0.316000
     21 HN1A         4.6480    -3.0750     0.1230 hn         1 FSU       0.316000
     22 H11         -2.4150     1.0350    -1.7440 h1         1 FSU       0.055200
     23 H11A        -2.1060    -0.6980    -1.5610 h1         1 FSU       0.055200
     24 H12          2.0380     3.6240     0.2850 ha         1 FSU       0.122000
     25 H13          4.8240     0.3790     0.8190 ha         1 FSU       0.123000
     26 H14         -2.7520    -0.5430     0.8630 hc         1 FSU       0.061700
     27 H14A        -3.0750     1.1820     0.6640 hc         1 FSU       0.061700
     28 H15          4.3380     2.7950     0.7940 ha         1 FSU       0.119000
     29 H17         -4.8630     0.6610    -1.0140 h1         1 FSU       0.019700
     30 H17A        -4.5390    -1.0810    -0.8080 h1         1 FSU       0.019700
     31 H18         -7.3050    -0.4040     1.5480 h1         1 FSU       0.028367
     32 H18A        -7.1720     0.3430    -0.0600 h1         1 FSU       0.028367
     33 H18B        -6.8470    -1.3970     0.1470 h1         1 FSU       0.028367
     34 H62         -0.7190     2.4410     0.4800 h1         1 FSU       0.062200
@<TRIPOS>BOND
     1     1     2 1   
     2     1     3 1   
     3     1     8 2   
     4     2     6 1   
     5     2    11 1   
     6     3     4 ar  
     7     3     5 ar  
     8     4     6 1   
     9     4    12 ar  
    10     5     7 1   
    11     5    13 ar  
    12     6    19 1   
    13     6    34 1   
    14     7     9 2   
    15     7    10 1   
    16    10    20 1   
    17    10    21 1   
    18    11    14 1   
    19    11    22 1   
    20    11    23 1   
    21    12    15 ar  
    22    12    24 1   
    23    13    15 ar  
    24    13    25 1   
    25    14    17 1   
    26    14    26 1   
    27    14    27 1   
    28    15    28 1   
    29    16    17 1   
    30    16    18 1   
    31    17    29 1   
    32    17    30 1   
    33    18    31 1   
    34    18    32 1   
    35    18    33 1   
@<TRIPOS>SUBSTRUCTURE
     1 FSU         1 TEMP              0 ****  ****    0 ROOT
