@<TRIPOS>MOLECULE
FSV
   29    30     1     0     0
SMALL
No Charge or Current Charge


@<TRIPOS>ATOM
      1 O01         -5.3720    -1.9300    -0.1630 oh         1 FSV      -0.533100
      2 C02         -4.4590    -0.9220    -0.1420 ca         1 FSV       0.177600
      3 C03         -3.0850    -1.2110    -0.1370 ca         1 FSV      -0.205000
      4 C04         -2.1360    -0.1710    -0.1160 ca         1 FSV       0.025200
      5 C05         -0.6820    -0.5110    -0.1110 ce         1 FSV      -0.160200
      6 C06          0.4020     0.3200    -0.0730 cf         1 FSV      -0.135200
      7 C07          1.8430    -0.0130    -0.0690 ca         1 FSV      -0.065800
      8 C08          2.3040    -1.3480    -0.1080 ca         1 FSV      -0.071000
      9 C09          3.6820    -1.6310    -0.1020 ca         1 FSV      -0.186000
     10 C10          4.6190    -0.5860    -0.0580 ca         1 FSV       0.106100
     11 O11          5.9570    -0.8770    -0.0530 oh         1 FSV      -0.512100
     12 C12          4.1650     0.7500    -0.0190 ca         1 FSV       0.138000
     13 F13          5.0500     1.7740     0.0250 f          1 FSV      -0.166000
     14 C14          2.7890     1.0320    -0.0240 ca         1 FSV      -0.106000
     15 C15         -2.5920     1.1640    -0.0990 ca         1 FSV      -0.205000
     16 C16         -3.9650     1.4470    -0.1040 ca         1 FSV       0.177600
     17 O17         -4.3850     2.7410    -0.0880 oh         1 FSV      -0.533100
     18 C18         -4.9010     0.4060    -0.1250 ca         1 FSV      -0.243000
     19 H1          -4.8880    -2.7830    -0.1720 ho         1 FSV       0.467500
     20 H2          -2.7510    -2.2450    -0.1500 ha         1 FSV       0.122500
     21 H3          -0.4980    -1.5830    -0.1440 ha         1 FSV       0.171000
     22 H4           0.2080     1.3910    -0.0390 ha         1 FSV       0.178000
     23 H5           1.6040    -2.1770    -0.1430 ha         1 FSV       0.117000
     24 H6           4.0130    -2.6670    -0.1330 ha         1 FSV       0.117000
     25 H7           6.0670    -1.8520    -0.0840 ho         1 FSV       0.468000
     26 H8           2.4640     2.0680     0.0070 ha         1 FSV       0.134000
     27 H9          -1.8910     1.9920    -0.0830 ha         1 FSV       0.122500
     28 H10         -5.3650     2.7450    -0.0940 ho         1 FSV       0.467500
     29 H11         -5.9660     0.6170    -0.1290 ha         1 FSV       0.130000
@<TRIPOS>BOND
     1     1     2 1   
     2     1    19 1   
     3     2     3 ar  
     4     2    18 ar  
     5     3     4 ar  
     6     3    20 1   
     7     4     5 1   
     8     4    15 ar  
     9     5     6 2   
    10     5    21 1   
    11     6     7 1   
    12     6    22 1   
    13     7     8 ar  
    14     7    14 ar  
    15     8     9 ar  
    16     8    23 1   
    17     9    10 ar  
    18     9    24 1   
    19    10    11 1   
    20    10    12 ar  
    21    11    25 1   
    22    12    13 1   
    23    12    14 ar  
    24    14    26 1   
    25    15    16 ar  
    26    15    27 1   
    27    16    17 1   
    28    16    18 ar  
    29    17    28 1   
    30    18    29 1   
@<TRIPOS>SUBSTRUCTURE
     1 FSV         1 TEMP              0 ****  ****    0 ROOT
