@<TRIPOS>MOLECULE
FSV
   29    30     1     0     0
SMALL
abcg2


@<TRIPOS>ATOM
      1 O01         -5.3170    -1.9000    -0.1620 oh         1 FSV      -0.533100
      2 C02         -4.3830    -0.9300    -0.1420 ca         1 FSV       0.177600
      3 C03         -3.0210    -1.2090    -0.1380 ca         1 FSV      -0.205000
      4 C04         -2.0910    -0.1670    -0.1140 ca         1 FSV       0.025200
      5 C05         -0.6720    -0.5250    -0.1090 ce         1 FSV      -0.160200
      6 C06          0.3610     0.3270    -0.0790 cf         1 FSV      -0.135200
      7 C07          1.7760    -0.0290    -0.0750 ca         1 FSV      -0.065800
      8 C08          2.2470    -1.3440    -0.1150 ca         1 FSV      -0.071000
      9 C09          3.6020    -1.6230    -0.1060 ca         1 FSV      -0.186000
     10 C10          4.5430    -0.5980    -0.0580 ca         1 FSV       0.106100
     11 O11          5.8720    -0.7890    -0.0460 oh         1 FSV      -0.512100
     12 C12          4.0680     0.7090    -0.0200 ca         1 FSV       0.138000
     13 F13          4.9640     1.7080     0.0260 f          1 FSV      -0.166000
     14 C14          2.7240     0.9990    -0.0280 ca         1 FSV      -0.106000
     15 C15         -2.5370     1.1540    -0.0960 ca         1 FSV      -0.205000
     16 C16         -3.9010     1.4210    -0.1020 ca         1 FSV       0.177600
     17 O17         -4.2800     2.7140    -0.0840 oh         1 FSV      -0.533100
     18 C18         -4.8320     0.3860    -0.1240 ca         1 FSV      -0.243000
     19 H1          -4.8970    -2.7670    -0.1660 ho         1 FSV       0.467500
     20 H2          -2.6770    -2.2370    -0.1530 ha         1 FSV       0.122500
     21 H3          -0.4800    -1.5940    -0.1310 ha         1 FSV       0.171000
     22 H4           0.1670     1.3950    -0.0540 ha         1 FSV       0.178000
     23 H5           1.5540    -2.1740    -0.1530 ha         1 FSV       0.117000
     24 H6           3.9370    -2.6530    -0.1390 ha         1 FSV       0.117000
     25 H7           6.0720    -1.7320    -0.0680 ho         1 FSV       0.468000
     26 H8           2.4100     2.0360     0.0050 ha         1 FSV       0.134000
     27 H9          -1.8410     1.9830    -0.0780 ha         1 FSV       0.122500
     28 H10         -5.2410     2.7860    -0.0940 ho         1 FSV       0.467500
     29 H11         -5.8970     0.5920    -0.1270 ha         1 FSV       0.130000
@<TRIPOS>BOND
     1     1     2 1   
     2     1    19 1   
     3     2     3 ar  
     4     2    18 ar  
     5     3     4 ar  
     6     3    20 1   
     7     4     5 1   
     8     4    15 ar  
     9     5     6 2   
    10     5    21 1   
    11     6     7 1   
    12     6    22 1   
    13     7     8 ar  
    14     7    14 ar  
    15     8     9 ar  
    16     8    23 1   
    17     9    10 ar  
    18     9    24 1   
    19    10    11 1   
    20    10    12 ar  
    21    11    25 1   
    22    12    13 1   
    23    12    14 ar  
    24    14    26 1   
    25    15    16 ar  
    26    15    27 1   
    27    16    17 1   
    28    16    18 ar  
    29    17    28 1   
    30    18    29 1   
@<TRIPOS>SUBSTRUCTURE
     1 FSV         1 TEMP              0 ****  ****    0 ROOT
