@<TRIPOS>MOLECULE
FSW
   29    29     1     0     0
SMALL
abcg2


@<TRIPOS>ATOM
      1 O3           0.0860    -2.4740    -0.7120 oh         1 FSW      -0.628000
      2 C3           0.6200    -1.1770    -0.6440 c6         1 FSW       0.190300
      3 C4           2.1030    -1.1570    -0.2720 c6         1 FSW       0.107300
      4 O4           2.2750    -1.8800     0.9210 oh         1 FSW      -0.694000
      5 C5           2.5500     0.3010    -0.1590 c6         1 FSW       0.138300
      6 C6           3.9920     0.4540     0.2800 c3         1 FSW      -0.093100
      7 O5           1.7460     1.0010     0.7810 os         1 FSW      -0.470000
      8 C2          -0.1760    -0.3900     0.3890 c6         1 FSW       0.119300
      9 SE2         -2.0760    -0.4710    -0.0910 ss         1 FSW      -0.488000
     10 C8          -2.7560     0.8870     1.1350 c3         1 FSW       0.094900
     11 C1           0.3740     1.0320     0.5040 c6         1 FSW       0.380300
     12 O1           0.0820     1.7350    -0.6570 os         1 FSW      -0.468000
     13 C7           0.3980     3.1100    -0.5940 c3         1 FSW       0.148900
     14 H1           0.4870    -2.9310    -1.4580 ho         1 FSW       0.442000
     15 H2           0.5360    -0.6730    -1.6170 h1         1 FSW       0.054700
     16 H3           2.6710    -1.6130    -1.0970 h1         1 FSW       0.032700
     17 H4           3.2160    -1.9920     1.0820 ho         1 FSW       0.502000
     18 H5           2.4480     0.7470    -1.1580 h1         1 FSW       0.049700
     19 H6           4.6510    -0.0900    -0.3980 hc         1 FSW       0.046367
     20 H7           4.2930     1.5020     0.2620 hc         1 FSW       0.046367
     21 H8           4.1540     0.0800     1.2920 hc         1 FSW       0.046367
     22 H9          -0.0600    -0.8540     1.3730 h1         1 FSW       0.106700
     23 H10         -2.4490     0.6800     2.1600 h1         1 FSW       0.054700
     24 H11         -2.4350     1.8870     0.8510 h1         1 FSW       0.054700
     25 H12         -3.8440     0.8470     1.0870 h1         1 FSW       0.054700
     26 H13         -0.0650     1.5370     1.3760 h2         1 FSW       0.070700
     27 H14         -0.0170     3.5770     0.3060 h1         1 FSW       0.033700
     28 H15          1.4760     3.2930    -0.6100 h1         1 FSW       0.033700
     29 H16         -0.0460     3.5860    -1.4660 h1         1 FSW       0.033700
@<TRIPOS>BOND
     1     1     2 1   
     2     1    14 1   
     3     2     3 1   
     4     2     8 1   
     5     2    15 1   
     6     3     4 1   
     7     3     5 1   
     8     3    16 1   
     9     4    17 1   
    10     5     6 1   
    11     5     7 1   
    12     5    18 1   
    13     6    19 1   
    14     6    20 1   
    15     6    21 1   
    16     7    11 1   
    17     8     9 1   
    18     8    11 1   
    19     8    22 1   
    20     9    10 1   
    21    10    23 1   
    22    10    24 1   
    23    10    25 1   
    24    11    12 1   
    25    11    26 1   
    26    12    13 1   
    27    13    27 1   
    28    13    28 1   
    29    13    29 1   
@<TRIPOS>SUBSTRUCTURE
     1 FSW         1 TEMP              0 ****  ****    0 ROOT
