@<TRIPOS>MOLECULE
FSW
   29    29     1     0     0
SMALL
No Charge or Current Charge


@<TRIPOS>ATOM
      1 O3           0.0350    -2.4540    -0.8800 oh         1 FSW      -0.628000
      2 C3           0.5250    -1.1030    -0.8130 c6         1 FSW       0.190300
      3 C4           2.0250    -1.1520    -0.3950 c6         1 FSW       0.107300
      4 O4           2.1530    -1.9140     0.8290 oh         1 FSW      -0.694000
      5 C5           2.5450     0.3130    -0.2460 c6         1 FSW       0.138300
      6 C6           4.0230     0.4060     0.2120 c3         1 FSW      -0.093100
      7 O5           1.7550     1.0310     0.7270 os         1 FSW      -0.470000
      8 C2          -0.3050    -0.2450     0.1980 c6         1 FSW       0.119300
      9 SE2         -2.1320    -0.1650    -0.2290 ss         1 FSW      -0.488000
     10 C8          -2.8300     0.4530     1.3730 c3         1 FSW       0.094900
     11 C1           0.3560     1.1610     0.3830 c6         1 FSW       0.380300
     12 O1           0.2330     1.9670    -0.8080 os         1 FSW      -0.468000
     13 C7           0.6280     3.3440    -0.6870 c3         1 FSW       0.148900
     14 H1           0.5380    -2.9210    -0.1740 ho         1 FSW       0.442000
     15 H2           0.4520    -0.6320    -1.8050 h1         1 FSW       0.054700
     16 H3           2.5970    -1.6390    -1.1980 h1         1 FSW       0.032700
     17 H4           3.0890    -1.8350     1.1260 ho         1 FSW       0.502000
     18 H5           2.4680     0.8210    -1.2190 h1         1 FSW       0.049700
     19 H6           4.6810    -0.1560    -0.4620 hc         1 FSW       0.046367
     20 H7           4.3640     1.4480     0.2100 hc         1 FSW       0.046367
     21 H8           4.1630     0.0150     1.2270 hc         1 FSW       0.046367
     22 H9          -0.2440    -0.7470     1.1730 h1         1 FSW       0.106700
     23 H10         -2.5610    -0.2310     2.1880 h1         1 FSW       0.054700
     24 H11         -2.4360     1.4530     1.5960 h1         1 FSW       0.054700
     25 H12         -3.9230     0.5100     1.3020 h1         1 FSW       0.054700
     26 H13         -0.1610     1.6730     1.2090 h2         1 FSW       0.070700
     27 H14          0.0360     3.8530     0.0850 h1         1 FSW       0.033700
     28 H15          1.6900     3.4280    -0.4230 h1         1 FSW       0.033700
     29 H16          0.4710     3.8700    -1.6380 h1         1 FSW       0.033700
@<TRIPOS>BOND
     1     1     2 1   
     2     1    14 1   
     3     2     3 1   
     4     2     8 1   
     5     2    15 1   
     6     3     4 1   
     7     3     5 1   
     8     3    16 1   
     9     4    17 1   
    10     5     6 1   
    11     5     7 1   
    12     5    18 1   
    13     6    19 1   
    14     6    20 1   
    15     6    21 1   
    16     7    11 1   
    17     8     9 1   
    18     8    11 1   
    19     8    22 1   
    20     9    10 1   
    21    10    23 1   
    22    10    24 1   
    23    10    25 1   
    24    11    12 1   
    25    11    26 1   
    26    12    13 1   
    27    13    27 1   
    28    13    28 1   
    29    13    29 1   
@<TRIPOS>SUBSTRUCTURE
     1 FSW         1 TEMP              0 ****  ****    0 ROOT
