@<TRIPOS>MOLECULE
FSY
   45    47     1     0     0
SMALL
abcg2


@<TRIPOS>ATOM
      1 O01         -4.3210    -3.4710     1.4580 o          1 FSY      -0.736000
      2 C02         -3.6560    -2.5240     1.0110 c          1 FSY       0.712000
      3 O03         -2.5680    -2.6430     0.3730 o          1 FSY      -0.736000
      4 C04         -4.2130    -1.1390     1.3100 c3         1 FSY      -0.150200
      5 C05         -3.4400    -0.0360     0.6760 cc         1 FSY      -0.034400
      6 C06         -2.3440     0.5960     1.1960 cd         1 FSY      -0.077300
      7 C07         -1.7350     0.4870     2.5460 c3         1 FSY      -0.024900
      8 N08         -1.7970     1.4380     0.2500 na         1 FSY      -0.212400
      9 C09         -2.5340     1.3350    -0.9010 ca         1 FSY       0.358500
     10 C10         -3.5830     0.4260    -0.6680 ca         1 FSY      -0.101800
     11 C11         -4.4510     0.1900    -1.7300 ca         1 FSY      -0.010000
     12 C12         -4.2050     0.8570    -2.9170 ca         1 FSY      -0.214000
     13 C13         -3.1180     1.7320    -3.0140 ca         1 FSY       0.337900
     14 N14         -2.2800     1.9790    -2.0210 nb         1 FSY      -0.702000
     15 C15         -0.4690     1.9910     0.3110 c3         1 FSY       0.111900
     16 C16          0.6100     0.9320     0.1540 ca         1 FSY      -0.006300
     17 C17          0.2640    -0.3140    -0.3590 ca         1 FSY      -0.096000
     18 C18          1.2160    -1.2880    -0.6000 ca         1 FSY       0.030000
     19 C19          2.5420    -1.0240    -0.3160 ca         1 FSY      -0.284500
     20 C20          2.9200     0.2040     0.2000 ca         1 FSY       0.012000
     21 C21          1.9610     1.1790     0.4370 ca         1 FSY      -0.224300
     22 C22          2.4050     2.5020     1.0040 c3         1 FSY       0.356300
     23 S26          3.7860    -2.2400    -0.7210 sy         1 FSY       1.080500
     24 O27          3.2090    -3.1130    -1.7300 o          1 FSY      -0.535000
     25 O28          5.0310    -1.5300    -0.9410 o          1 FSY      -0.535000
     26 C29          3.9510    -3.2010     0.7730 c3         1 FSY      -0.339100
     27 F23          1.9960     3.5280     0.2520 f          1 FSY      -0.117333
     28 F24          1.9010     2.6900     2.2350 f          1 FSY      -0.117333
     29 F25          3.7260     2.5910     1.1080 f          1 FSY      -0.117333
     30 H2          -5.2590    -1.1070     0.9870 hc         1 FSY       0.034700
     31 H3          -4.2500    -1.0180     2.3960 hc         1 FSY       0.034700
     32 H4          -1.7180     1.4500     3.0610 hc         1 FSY       0.041700
     33 H5          -2.2940    -0.2030     3.1750 hc         1 FSY       0.041700
     34 H6          -0.7000     0.1350     2.5050 hc         1 FSY       0.041700
     35 H7          -5.2980    -0.4780    -1.6490 ha         1 FSY       0.126000
     36 H8          -4.8460     0.7140    -3.7740 ha         1 FSY       0.107000
     37 H9          -2.9230     2.2530    -3.9440 h4         1 FSY       0.000100
     38 H10         -0.3870     2.7170    -0.4970 h1         1 FSY       0.082200
     39 H11         -0.3630     2.5430     1.2450 h1         1 FSY       0.082200
     40 H12         -0.7660    -0.5370    -0.6000 ha         1 FSY       0.181000
     41 H13          0.9270    -2.2330    -1.0380 ha         1 FSY       0.159000
     42 H14          3.9670     0.3990     0.3890 ha         1 FSY       0.137000
     43 H15          3.0020    -3.6680     1.0240 h1         1 FSY       0.101367
     44 H16          4.6870    -3.9760     0.5590 h1         1 FSY       0.101367
     45 H17          4.3020    -2.5790     1.5930 h1         1 FSY       0.101367
@<TRIPOS>BOND
     1     1     2 1   
     2     2     3 1   
     3     2     4 1   
     4     4     5 1   
     5     4    30 1   
     6     4    31 1   
     7     5     6 2   
     8     5    10 1   
     9     6     7 1   
    10     6     8 1   
    11     7    32 1   
    12     7    33 1   
    13     7    34 1   
    14     8     9 1   
    15     8    15 1   
    16     9    10 ar  
    17     9    14 ar  
    18    10    11 ar  
    19    11    12 ar  
    20    11    35 1   
    21    12    13 ar  
    22    12    36 1   
    23    13    14 ar  
    24    13    37 1   
    25    15    16 1   
    26    15    38 1   
    27    15    39 1   
    28    16    17 ar  
    29    16    21 ar  
    30    17    18 ar  
    31    17    40 1   
    32    18    19 ar  
    33    18    41 1   
    34    19    20 ar  
    35    19    23 1   
    36    20    21 ar  
    37    20    42 1   
    38    21    22 1   
    39    22    27 1   
    40    22    28 1   
    41    22    29 1   
    42    23    24 2   
    43    23    25 2   
    44    23    26 1   
    45    26    43 1   
    46    26    44 1   
    47    26    45 1   
@<TRIPOS>SUBSTRUCTURE
     1 FSY         1 TEMP              0 ****  ****    0 ROOT
