@<TRIPOS>MOLECULE
FSY
   45    47     1     0     0
SMALL
No Charge or Current Charge


@<TRIPOS>ATOM
      1 O01         -4.9650    -2.8020     0.4900 o          1 FSY      -0.736000
      2 C02         -4.3350    -2.2840     1.4010 c          1 FSY       0.712000
      3 O03         -3.5200    -2.8890     2.0820 o          1 FSY      -0.736000
      4 C04         -4.4690    -0.7650     1.6040 c3         1 FSY      -0.150200
      5 C05         -3.4940     0.0110     0.7490 cc         1 FSY      -0.034400
      6 C06         -2.2230     0.4680     1.0890 cd         1 FSY      -0.077300
      7 C07         -1.4790     0.2970     2.3920 c3         1 FSY      -0.024900
      8 N08         -1.6790     1.1720    -0.0100 na         1 FSY      -0.212400
      9 C09         -2.6050     1.1410    -1.0430 ca         1 FSY       0.358500
     10 C10         -3.7080     0.4420    -0.6070 ca         1 FSY      -0.101800
     11 C11         -4.8150     0.2300    -1.4400 ca         1 FSY      -0.010000
     12 C12         -4.7350     0.7720    -2.7350 ca         1 FSY      -0.214000
     13 C13         -3.5760     1.4770    -3.1150 ca         1 FSY       0.337900
     14 N14         -2.5180     1.6630    -2.2880 nb         1 FSY      -0.702000
     15 C15         -0.3720     1.8550    -0.1020 c3         1 FSY       0.111900
     16 C16          0.8330     0.9040    -0.2000 ca         1 FSY      -0.006300
     17 C17          0.7080    -0.2520    -1.0020 ca         1 FSY      -0.096000
     18 C18          1.7610    -1.1670    -1.1290 ca         1 FSY       0.030000
     19 C19          2.9710    -0.9350    -0.4550 ca         1 FSY      -0.284500
     20 C20          3.1190     0.2160     0.3410 ca         1 FSY       0.012000
     21 C21          2.0650     1.1520     0.4730 ca         1 FSY      -0.224300
     22 C22          2.2770     2.4040     1.3480 c3         1 FSY       0.356300
     23 S26          4.3240    -2.1170    -0.6000 sy         1 FSY       1.080500
     24 O27          4.1270    -2.9170    -1.8160 o          1 FSY      -0.535000
     25 O28          5.5920    -1.4230    -0.3400 o          1 FSY      -0.535000
     26 C29          4.0500    -3.2160     0.7880 c3         1 FSY      -0.339100
     27 F23          1.9850     3.5430     0.6800 f          1 FSY      -0.117333
     28 F24          1.4990     2.3760     2.4540 f          1 FSY      -0.117333
     29 F25          3.5510     2.5410     1.7830 f          1 FSY      -0.117333
     30 H2          -5.4710    -0.4410     1.3000 hc         1 FSY       0.034700
     31 H3          -4.2480    -0.5100     2.6460 hc         1 FSY       0.034700
     32 H4          -1.4700     1.2330     2.9620 hc         1 FSY       0.041700
     33 H5          -1.9330    -0.4750     3.0230 hc         1 FSY       0.041700
     34 H6          -0.4380    -0.0000     2.2190 hc         1 FSY       0.041700
     35 H7          -5.6880    -0.3260    -1.1080 ha         1 FSY       0.126000
     36 H8          -5.5540     0.6490    -3.4380 ha         1 FSY       0.107000
     37 H9          -3.4900     1.9040    -4.1130 h4         1 FSY       0.000100
     38 H10         -0.3690     2.5140    -0.9790 h1         1 FSY       0.082200
     39 H11         -0.2940     2.5000     0.7780 h1         1 FSY       0.082200
     40 H12         -0.2170    -0.4490    -1.5380 ha         1 FSY       0.181000
     41 H13          1.6280    -2.0510    -1.7510 ha         1 FSY       0.159000
     42 H14          4.0640     0.3770     0.8590 ha         1 FSY       0.137000
     43 H15          3.0640    -3.6760     0.6700 h1         1 FSY       0.101367
     44 H16          4.8370    -3.9780     0.7790 h1         1 FSY       0.101367
     45 H17          4.0940    -2.6230     1.7070 h1         1 FSY       0.101367
@<TRIPOS>BOND
     1     1     2 1   
     2     2     3 1   
     3     2     4 1   
     4     4     5 1   
     5     4    30 1   
     6     4    31 1   
     7     5     6 2   
     8     5    10 1   
     9     6     7 1   
    10     6     8 1   
    11     7    32 1   
    12     7    33 1   
    13     7    34 1   
    14     8     9 1   
    15     8    15 1   
    16     9    10 ar  
    17     9    14 ar  
    18    10    11 ar  
    19    11    12 ar  
    20    11    35 1   
    21    12    13 ar  
    22    12    36 1   
    23    13    14 ar  
    24    13    37 1   
    25    15    16 1   
    26    15    38 1   
    27    15    39 1   
    28    16    17 ar  
    29    16    21 ar  
    30    17    18 ar  
    31    17    40 1   
    32    18    19 ar  
    33    18    41 1   
    34    19    20 ar  
    35    19    23 1   
    36    20    21 ar  
    37    20    42 1   
    38    21    22 1   
    39    22    27 1   
    40    22    28 1   
    41    22    29 1   
    42    23    24 2   
    43    23    25 2   
    44    23    26 1   
    45    26    43 1   
    46    26    44 1   
    47    26    45 1   
@<TRIPOS>SUBSTRUCTURE
     1 FSY         1 TEMP              0 ****  ****    0 ROOT
