@<TRIPOS>MOLECULE
FSZ
   37    38     1     0     0
SMALL
bcc


@<TRIPOS>ATOM
      1 N3           5.3110     0.5330     0.0100 n7         1 FSZ      -0.789200
      2 C4           4.7000    -0.0480     1.1950 c6         1 FSZ       0.147800
      3 C5           3.1840     0.1280     1.2620 c6         1 FSZ      -0.108400
      4 C6           2.5230    -0.4140    -0.0090 c6         1 FSZ      -0.018400
      5 C8          -0.9410     1.1800     0.1180 ca         1 FSZ       0.186600
      6 C10          1.0250    -0.2530     0.0000 ca         1 FSZ      -0.046300
      7 C13         -1.7630     0.0580     0.0030 ca         1 FSZ      -0.115000
      8 C1           3.1670     0.2310    -1.2410 c6         1 FSZ      -0.108400
      9 C11          0.1970    -1.3660    -0.1210 ca         1 FSZ      -0.115000
     10 C12         -1.1790    -1.1960    -0.1230 ca         1 FSZ      -0.163300
     11 C14         -2.0790    -2.3910    -0.1970 c3         1 FSZ       0.719200
     12 C18         -2.6920     2.9660     0.1890 c2         1 FSZ       0.817100
     13 C2           4.6830     0.0520    -1.2100 c6         1 FSZ       0.147800
     14 C9           0.4470     1.0010     0.1140 ca         1 FSZ      -0.172000
     15 F15         -1.4870    -3.4460    -0.7680 f          1 FSZ      -0.235300
     16 F16         -2.4740    -2.7870     1.0250 f          1 FSZ      -0.235300
     17 F17         -3.1950    -2.1480    -0.8950 f          1 FSZ      -0.235300
     18 N19         -3.7080     2.1910     0.1640 n2         1 FSZ      -0.878100
     19 N20         -2.7230     4.3410     0.2440 nv         1 FSZ      -0.963800
     20 H1           5.2130     1.5410     0.0530 hn         1 FSZ       0.345800
     21 H3           4.9380    -1.1170     1.2130 h1         1 FSZ       0.053950
     22 H4           5.1680     0.3880     2.0800 h1         1 FSZ       0.053950
     23 H5           2.7840    -0.3830     2.1420 hc         1 FSZ       0.045950
     24 H6           2.9500     1.1920     1.3810 hc         1 FSZ       0.045950
     25 H7           2.7360    -1.4890    -0.0570 hc         1 FSZ       0.057700
     26 H8          -2.8340     0.1880     0.0130 ha         1 FSZ       0.194000
     27 H9           2.7550    -0.2070    -2.1550 hc         1 FSZ       0.045950
     28 H10          2.9290     1.3000    -1.2700 hc         1 FSZ       0.045950
     29 H11          0.6410    -2.3480    -0.2180 ha         1 FSZ       0.148000
     30 H12          5.1390     0.5600    -2.0630 h1         1 FSZ       0.053950
     31 H13          4.9210    -1.0120    -1.3200 h1         1 FSZ       0.053950
     32 H14          1.0840     1.8750     0.1950 ha         1 FSZ       0.126000
     33 H15         -4.5640     2.7290     0.1010 hn         1 FSZ       0.388400
     34 H16         -3.6120     4.7580     0.0180 hn         1 FSZ       0.402800
     35 H17         -1.9570     4.8390    -0.1850 hn         1 FSZ       0.402800
     36 H18         -0.6800     3.1700     0.3540 hn         1 FSZ       0.436800
     37 N7          -1.4040     2.4790     0.2340 nu         1 FSZ      -0.738600
@<TRIPOS>BOND
     1     1     2 1   
     2     1    13 1   
     3     1    20 1   
     4     2     3 1   
     5     2    21 1   
     6     2    22 1   
     7     3     4 1   
     8     3    23 1   
     9     3    24 1   
    10     4     6 1   
    11     4     8 1   
    12     4    25 1   
    13     5     7 ar  
    14     5    14 ar  
    15     5    37 1   
    16     6     9 ar  
    17     6    14 ar  
    18     7    10 ar  
    19     7    26 1   
    20     8    13 1   
    21     8    27 1   
    22     8    28 1   
    23     9    10 ar  
    24     9    29 1   
    25    10    11 1   
    26    11    15 1   
    27    11    16 1   
    28    11    17 1   
    29    12    18 2   
    30    12    19 1   
    31    12    37 1   
    32    13    30 1   
    33    13    31 1   
    34    14    32 1   
    35    18    33 1   
    36    19    34 1   
    37    19    35 1   
    38    36    37 1   
@<TRIPOS>SUBSTRUCTURE
     1 FSZ         1 TEMP              0 ****  ****    0 ROOT
