@<TRIPOS>MOLECULE
FSZ
   37    38     1     0     0
SMALL
No Charge or Current Charge


@<TRIPOS>ATOM
      1 N3           5.2390     0.6550     0.2370 n7         1 FSZ      -0.844400
      2 C4           4.5680     0.0650     1.4210 c6         1 FSZ       0.147800
      3 C5           3.0310     0.2170     1.3210 c6         1 FSZ      -0.108400
      4 C6           2.4910    -0.4050     0.0040 c6         1 FSZ      -0.018400
      5 C8          -1.0210     1.1580    -0.2970 ca         1 FSZ       0.325000
      6 C10          0.9680    -0.2520    -0.1290 ca         1 FSZ      -0.046300
      7 C13         -1.8250     0.0080    -0.3710 ca         1 FSZ      -0.097000
      8 C1           3.2500     0.2020    -1.2070 c6         1 FSZ      -0.108400
      9 C11          0.1500    -1.3980    -0.1950 ca         1 FSZ      -0.097000
     10 C12         -1.2510    -1.2820    -0.3250 ca         1 FSZ      -0.163300
     11 C14         -2.1300    -2.5380    -0.3900 c3         1 FSZ       0.355300
     12 C18         -2.5850     2.9550     0.2880 c2         1 FSZ       0.817100
     13 C2           4.7820     0.0510    -1.0390 c6         1 FSZ       0.147800
     14 C9           0.3720     1.0240    -0.1870 ca         1 FSZ      -0.154000
     15 F15         -1.5250    -3.5510    -1.0520 f          1 FSZ      -0.114000
     16 F16         -2.4250    -2.9950     0.8470 f          1 FSZ      -0.114000
     17 F17         -3.3070    -2.3150    -1.0190 f          1 FSZ      -0.114000
     18 N19         -3.1290     2.4140     1.2670 n2         1 FSZ      -0.878100
     19 N20         -2.4580     4.2330     0.0540 nv         1 FSZ      -1.074200
     20 H1           5.0180     1.6580     0.2120 hn         1 FSZ       0.401000
     21 H3           4.8280    -1.0020     1.4980 h1         1 FSZ       0.053950
     22 H4           4.9290     0.5580     2.3360 h1         1 FSZ       0.053950
     23 H5           2.5570    -0.2690     2.1840 hc         1 FSZ       0.045950
     24 H6           2.7670     1.2810     1.3790 hc         1 FSZ       0.045950
     25 H7           2.7290    -1.4780     0.0310 hc         1 FSZ       0.057700
     26 H8          -2.9010     0.1290    -0.4620 ha         1 FSZ       0.176000
     27 H9           2.9310    -0.2940    -2.1340 hc         1 FSZ       0.045950
     28 H10          3.0010     1.2660    -1.3220 hc         1 FSZ       0.045950
     29 H11          0.6060    -2.3840    -0.1440 ha         1 FSZ       0.130000
     30 H12          5.2950     0.5340    -1.8840 h1         1 FSZ       0.053950
     31 H13          5.0490    -1.0170    -1.0580 h1         1 FSZ       0.053950
     32 H14          0.9910     1.9140    -0.1390 ha         1 FSZ       0.108000
     33 H15         -3.6950     3.1230     1.7430 hn         1 FSZ       0.388400
     34 H16         -3.0770     4.7960     0.6200 hn         1 FSZ       0.458000
     35 H17         -2.5390     4.4360    -0.9340 hn         1 FSZ       0.458000
     36 H18         -0.9030     3.1670    -0.5120 hn         1 FSZ       0.492000
     37 N7          -1.5780     2.4330    -0.3670 nu         1 FSZ      -0.932200
@<TRIPOS>BOND
     1     1     2 1   
     2     1    13 1   
     3     1    20 1   
     4     2     3 1   
     5     2    21 1   
     6     2    22 1   
     7     3     4 1   
     8     3    23 1   
     9     3    24 1   
    10     4     6 1   
    11     4     8 1   
    12     4    25 1   
    13     5     7 ar  
    14     5    14 ar  
    15     5    37 1   
    16     6     9 ar  
    17     6    14 ar  
    18     7    10 ar  
    19     7    26 1   
    20     8    13 1   
    21     8    27 1   
    22     8    28 1   
    23     9    10 ar  
    24     9    29 1   
    25    10    11 1   
    26    11    15 1   
    27    11    16 1   
    28    11    17 1   
    29    12    18 2   
    30    12    19 1   
    31    12    37 1   
    32    13    30 1   
    33    13    31 1   
    34    14    32 1   
    35    18    33 1   
    36    19    34 1   
    37    19    35 1   
    38    36    37 1   
@<TRIPOS>SUBSTRUCTURE
     1 FSZ         1 TEMP              0 ****  ****    0 ROOT
