@<TRIPOS>MOLECULE
FT0
   26    27     1     0     0
SMALL
abcg2


@<TRIPOS>ATOM
      1 C1          -0.3390    -0.5750     0.0970 ca         1 FT0       0.075100
      2 C2          -1.4310    -1.4570     0.0930 ca         1 FT0       0.111100
      3 C3          -2.7090    -0.9330     0.0520 ca         1 FT0      -0.087000
      4 C4          -2.9130     0.4460     0.0170 ca         1 FT0      -0.197600
      5 C5          -1.8230     1.3110     0.0210 ca         1 FT0      -0.052000
      6 C6          -0.5370     0.7990     0.0620 ca         1 FT0      -0.160000
      7 O7           0.8730    -1.1790     0.1430 os         1 FT0      -0.277200
      8 C8           2.0190    -0.4160     0.0900 ca         1 FT0       0.094100
      9 C9           2.6290    -0.0340     1.2750 ca         1 FT0      -0.114000
     10 C10          3.8110     0.6920     1.2190 ca         1 FT0      -0.100500
     11 C11          4.3670     1.0340    -0.0070 ca         1 FT0      -0.106000
     12 C12          3.7410     0.6440    -1.1840 ca         1 FT0      -0.100500
     13 C13          2.5590    -0.0830    -1.1420 ca         1 FT0      -0.114000
     14 C14         -4.2900     0.9500    -0.0240 c          1 FT0       0.588500
     15 O15         -4.5960     2.1200    -0.0530 o          1 FT0      -0.520100
     16 O16         -1.2670    -2.7910     0.1260 oh         1 FT0      -0.533100
     17 H3          -3.5560    -1.6110     0.0480 ha         1 FT0       0.133000
     18 H5          -1.9710     2.3820    -0.0050 ha         1 FT0       0.136000
     19 H6           0.3070     1.4750     0.0660 ha         1 FT0       0.131000
     20 H9           2.1910    -0.3050     2.2270 ha         1 FT0       0.130500
     21 H10          4.2980     0.9880     2.1390 ha         1 FT0       0.120000
     22 H11          5.2890     1.5990    -0.0460 ha         1 FT0       0.119000
     23 H12          4.1720     0.9020    -2.1420 ha         1 FT0       0.120000
     24 H13          2.0670    -0.3920    -2.0550 ha         1 FT0       0.130500
     25 H14         -5.0650     0.1630    -0.0250 h4         1 FT0      -0.010800
     26 HO16        -0.3310    -3.0230     0.1580 ho         1 FT0       0.485000
@<TRIPOS>BOND
     1     1     2 ar  
     2     1     6 ar  
     3     1     7 1   
     4     2     3 ar  
     5     2    16 1   
     6     3     4 ar  
     7     3    17 1   
     8     4     5 ar  
     9     4    14 1   
    10     5     6 ar  
    11     5    18 1   
    12     6    19 1   
    13     7     8 1   
    14     8     9 ar  
    15     8    13 ar  
    16     9    10 ar  
    17     9    20 1   
    18    10    11 ar  
    19    10    21 1   
    20    11    12 ar  
    21    11    22 1   
    22    12    13 ar  
    23    12    23 1   
    24    13    24 1   
    25    14    15 2   
    26    14    25 1   
    27    16    26 1   
@<TRIPOS>SUBSTRUCTURE
     1 FT0         1 TEMP              0 ****  ****    0 ROOT
