@<TRIPOS>MOLECULE
FT0
   26    27     1     0     0
SMALL
No Charge or Current Charge


@<TRIPOS>ATOM
      1 C1          -0.3940    -0.4870     0.4990 ca         1 FT0       0.075100
      2 C2          -1.4110    -1.4180     0.2010 ca         1 FT0       0.111100
      3 C3          -2.6920    -0.9680    -0.1600 ca         1 FT0      -0.087000
      4 C4          -2.9740     0.4140    -0.2190 ca         1 FT0      -0.197600
      5 C5          -1.9560     1.3420     0.0940 ca         1 FT0      -0.052000
      6 C6          -0.6740     0.8930     0.4550 ca         1 FT0      -0.160000
      7 O7           0.8560    -0.9450     0.8640 os         1 FT0      -0.277200
      8 C8           2.0240    -0.3260     0.4760 ca         1 FT0       0.094100
      9 C9           3.0990    -0.2780     1.3790 ca         1 FT0      -0.114000
     10 C10          4.3080     0.3350     1.0040 ca         1 FT0      -0.100500
     11 C11          4.4440     0.8930    -0.2790 ca         1 FT0      -0.106000
     12 C12          3.3740     0.8350    -1.1890 ca         1 FT0      -0.100500
     13 C13          2.1650     0.2220    -0.8150 ca         1 FT0      -0.114000
     14 C14         -4.3540     0.8800    -0.6070 c          1 FT0       0.588500
     15 O15         -4.6720     2.0640    -0.6770 o          1 FT0      -0.520100
     16 O16         -1.1540    -2.7590     0.2570 oh         1 FT0      -0.533100
     17 H3          -3.4660    -1.6970    -0.3920 ha         1 FT0       0.133000
     18 H5          -2.1570     2.4120     0.0610 ha         1 FT0       0.136000
     19 H6           0.0980     1.6170     0.7040 ha         1 FT0       0.131000
     20 H9           2.9930    -0.7120     2.3700 ha         1 FT0       0.130500
     21 H10          5.1380     0.3760     1.7060 ha         1 FT0       0.120000
     22 H11          5.3800     1.3670    -0.5700 ha         1 FT0       0.119000
     23 H12          3.4820     1.2610    -2.1850 ha         1 FT0       0.120000
     24 H13          1.3440     0.1700    -1.5260 ha         1 FT0       0.130500
     25 H14         -5.0920     0.0790    -0.8330 h4         1 FT0      -0.010800
     26 HO16        -0.2150    -2.8640     0.5310 ho         1 FT0       0.485000
@<TRIPOS>BOND
     1     1     2 ar  
     2     1     6 ar  
     3     1     7 1   
     4     2     3 ar  
     5     2    16 1   
     6     3     4 ar  
     7     3    17 1   
     8     4     5 ar  
     9     4    14 1   
    10     5     6 ar  
    11     5    18 1   
    12     6    19 1   
    13     7     8 1   
    14     8     9 ar  
    15     8    13 ar  
    16     9    10 ar  
    17     9    20 1   
    18    10    11 ar  
    19    10    21 1   
    20    11    12 ar  
    21    11    22 1   
    22    12    13 ar  
    23    12    23 1   
    24    13    24 1   
    25    14    15 2   
    26    14    25 1   
    27    16    26 1   
@<TRIPOS>SUBSTRUCTURE
     1 FT0         1 TEMP              0 ****  ****    0 ROOT
