@<TRIPOS>MOLECULE
FT1
   26    27     1     0     0
SMALL
abcg2


@<TRIPOS>ATOM
      1 C1           1.4750    -0.6210    -0.3590 ca         1 FT1       0.086100
      2 C2           1.9240    -0.4080     0.9480 ca         1 FT1       0.112100
      3 C3           3.2170     0.0550     1.1360 ca         1 FT1      -0.161000
      4 C4           4.0480     0.2900     0.0440 ca         1 FT1      -0.160600
      5 C5           3.5920     0.0670    -1.2520 ca         1 FT1      -0.076000
      6 C6           2.2990    -0.3860    -1.4470 ca         1 FT1      -0.092000
      7 O7           0.2260    -1.1340    -0.5640 os         1 FT1      -0.221200
      8 C8          -0.8580    -0.3660    -0.3010 ca         1 FT1       0.151100
      9 C9          -2.0810    -1.0210    -0.1770 ca         1 FT1       0.096000
     10 C10         -3.2490    -0.3140     0.0520 ca         1 FT1      -0.069000
     11 C11         -3.1880     1.0660     0.1650 ca         1 FT1       0.094000
     12 C12         -1.9820     1.7340     0.0450 ca         1 FT1      -0.070000
     13 C13         -0.8210     1.0160    -0.1910 ca         1 FT1      -0.163000
     14 C14          5.4130     0.7740     0.3010 c          1 FT1       0.582500
     15 O15          6.2300     1.0100    -0.5560 o          1 FT1      -0.506100
     16 CL1         -4.6420     1.9580     0.4550 cl         1 FT1      -0.193000
     17 CL9         -2.1350    -2.7370    -0.3180 cl         1 FT1      -0.168000
     18 O18          1.0650    -0.6660     1.9470 oh         1 FT1      -0.513100
     19 H3           3.5840     0.2300     2.1430 ha         1 FT1       0.120000
     20 H5           4.2370     0.2470    -2.1000 ha         1 FT1       0.142000
     21 H6           1.9200    -0.5670    -2.4440 ha         1 FT1       0.140000
     22 H10         -4.1890    -0.8380     0.1450 ha         1 FT1       0.145000
     23 H12         -1.9370     2.8100     0.1270 ha         1 FT1       0.132000
     24 H13          0.1120     1.5540    -0.2980 ha         1 FT1       0.130000
     25 H14          5.6560     0.9150     1.3700 h4         1 FT1      -0.009800
     26 HO18         1.4810    -0.5070     2.7990 ho         1 FT1       0.470000
@<TRIPOS>BOND
     1     1     2 ar  
     2     1     6 ar  
     3     1     7 1   
     4     2     3 ar  
     5     2    18 1   
     6     3     4 ar  
     7     3    19 1   
     8     4     5 ar  
     9     4    14 1   
    10     5     6 ar  
    11     5    20 1   
    12     6    21 1   
    13     7     8 1   
    14     8     9 ar  
    15     8    13 ar  
    16     9    10 ar  
    17     9    17 1   
    18    10    11 ar  
    19    10    22 1   
    20    11    12 ar  
    21    11    16 1   
    22    12    13 ar  
    23    12    23 1   
    24    13    24 1   
    25    14    15 2   
    26    14    25 1   
    27    18    26 1   
@<TRIPOS>SUBSTRUCTURE
     1 FT1         1 TEMP              0 ****  ****    0 ROOT
