@<TRIPOS>MOLECULE
FT1
   26    27     1     0     0
SMALL
No Charge or Current Charge


@<TRIPOS>ATOM
      1 C1           1.4840    -0.6260    -0.4420 ca         1 FT1       0.086100
      2 C2           1.8980    -0.4010     0.8930 ca         1 FT1       0.112100
      3 C3           3.2050     0.0520     1.1490 ca         1 FT1      -0.161000
      4 C4           4.1080     0.2780     0.0870 ca         1 FT1      -0.160600
      5 C5           3.6880     0.0390    -1.2400 ca         1 FT1      -0.076000
      6 C6           2.3830    -0.4140    -1.5000 ca         1 FT1      -0.092000
      7 O7           0.2130    -1.0710    -0.7360 os         1 FT1      -0.221200
      8 C8          -0.9210    -0.3580    -0.4030 ca         1 FT1       0.151100
      9 C9          -2.1340    -1.0460    -0.1870 ca         1 FT1       0.096000
     10 C10         -3.3000    -0.3330     0.1430 ca         1 FT1      -0.069000
     11 C11         -3.2600     1.0660     0.2530 ca         1 FT1       0.094000
     12 C12         -2.0580     1.7590     0.0300 ca         1 FT1      -0.070000
     13 C13         -0.8880     1.0500    -0.3010 ca         1 FT1      -0.163000
     14 C14          5.5070     0.7640     0.3770 c          1 FT1       0.582500
     15 O15          6.3440     0.9790    -0.4950 o          1 FT1      -0.506100
     16 Cl1         -4.7200     1.9550     0.6650 cl         1 FT1      -0.193000
     17 Cl9         -2.2100    -2.8030    -0.3210 cl         1 FT1      -0.168000
     18 O18          1.0500    -0.6290     1.9450 oh         1 FT1      -0.513100
     19 H3           3.5260     0.2280     2.1740 ha         1 FT1       0.120000
     20 H5           4.3710     0.2020    -2.0720 ha         1 FT1       0.142000
     21 H6           2.0650    -0.5970    -2.5230 ha         1 FT1       0.140000
     22 H10         -4.2320    -0.8650     0.3120 ha         1 FT1       0.145000
     23 H12         -2.0340     2.8430     0.1110 ha         1 FT1       0.132000
     24 H13          0.0350     1.5960    -0.4790 ha         1 FT1       0.130000
     25 H14          5.7530     0.9240     1.4500 h4         1 FT1      -0.009800
     26 HO18         1.5240    -0.4300     2.7810 ho         1 FT1       0.470000
@<TRIPOS>BOND
     1     1     2 ar  
     2     1     6 ar  
     3     1     7 1   
     4     2     3 ar  
     5     2    18 1   
     6     3     4 ar  
     7     3    19 1   
     8     4     5 ar  
     9     4    14 1   
    10     5     6 ar  
    11     5    20 1   
    12     6    21 1   
    13     7     8 1   
    14     8     9 ar  
    15     8    13 ar  
    16     9    10 ar  
    17     9    17 1   
    18    10    11 ar  
    19    10    22 1   
    20    11    12 ar  
    21    11    16 1   
    22    12    13 ar  
    23    12    23 1   
    24    13    24 1   
    25    14    15 2   
    26    14    25 1   
    27    18    26 1   
@<TRIPOS>SUBSTRUCTURE
     1 FT1         1 TEMP              0 ****  ****    0 ROOT
