@<TRIPOS>MOLECULE
FT2
   27    28     1     0     0
SMALL
No Charge or Current Charge


@<TRIPOS>ATOM
      1 C1           0.9780    -0.3400     0.4310 ca         1 FT2      -0.001900
      2 C2           1.9930    -0.4010     1.4070 ca         1 FT2       0.151100
      3 C3           3.2890     0.0490     1.1060 ca         1 FT2      -0.125000
      4 C4           3.5870     0.5570    -0.1740 ca         1 FT2      -0.062300
      5 C5           2.5750     0.6020    -1.1530 ca         1 FT2      -0.120000
      6 C6           1.2760     0.1530    -0.8550 ca         1 FT2      -0.081000
      7 O7          -0.2870    -0.7980     0.7420 os         1 FT2      -0.242200
      8 C8          -1.4380    -0.2210     0.2460 ca         1 FT2       0.130100
      9 C9          -2.5140    -1.0400    -0.1560 ca         1 FT2       0.092000
     10 C10         -3.6950    -0.4580    -0.6500 ca         1 FT2      -0.068000
     11 C11         -3.8060     0.9400    -0.7370 ca         1 FT2       0.096000
     12 C12         -2.7410     1.7600    -0.3260 ca         1 FT2      -0.069000
     13 C13         -1.5580     1.1820     0.1690 ca         1 FT2      -0.162000
     14 C14          4.9940     1.0410    -0.4990 c3         1 FT2       0.175900
     15 Cl15         6.0370    -0.3230    -1.0980 cl         1 FT2      -0.278000
     16 Cl16        -5.2840     1.6650    -1.3540 cl         1 FT2      -0.188000
     17 Cl17        -2.3960    -2.7970    -0.0550 cl         1 FT2      -0.168000
     18 O18          1.7200    -0.8940     2.6500 oh         1 FT2      -0.525100
     19 H3           4.0630    -0.0000     1.8680 ha         1 FT2       0.137000
     20 H5           2.7950     0.9810    -2.1490 ha         1 FT2       0.126000
     21 H6           0.5090     0.1830    -1.6260 ha         1 FT2       0.133000
     22 H10         -4.5210    -1.0890    -0.9640 ha         1 FT2       0.147000
     23 H12         -2.8350     2.8420    -0.3890 ha         1 FT2       0.135000
     24 H13         -0.7410     1.8210     0.4950 ha         1 FT2       0.136000
     25 H14          4.9680     1.8110    -1.2810 h1         1 FT2       0.073200
     26 H14A         5.4740     1.4620     0.3930 h1         1 FT2       0.073200
     27 HO18         0.7750    -1.1620     2.6530 ho         1 FT2       0.486000
@<TRIPOS>BOND
     1     1     2 ar  
     2     1     6 ar  
     3     1     7 1   
     4     2     3 ar  
     5     2    18 1   
     6     3     4 ar  
     7     3    19 1   
     8     4     5 ar  
     9     4    14 1   
    10     5     6 ar  
    11     5    20 1   
    12     6    21 1   
    13     7     8 1   
    14     8     9 ar  
    15     8    13 ar  
    16     9    10 ar  
    17     9    17 1   
    18    10    11 ar  
    19    10    22 1   
    20    11    12 ar  
    21    11    16 1   
    22    12    13 ar  
    23    12    23 1   
    24    13    24 1   
    25    14    15 1   
    26    14    25 1   
    27    14    26 1   
    28    18    27 1   
@<TRIPOS>SUBSTRUCTURE
     1 FT2         1 TEMP              0 ****  ****    0 ROOT
