@<TRIPOS>MOLECULE
FT2
   27    28     1     0     0
SMALL
bcc


@<TRIPOS>ATOM
      1 C1           1.0020    -0.5010     0.0640 ca         1 FT2      -0.001900
      2 C2           1.7620    -0.3060     1.2150 ca         1 FT2       0.151100
      3 C3           3.0320     0.2470     1.0880 ca         1 FT2      -0.143000
      4 C4           3.5260     0.6120    -0.1570 ca         1 FT2      -0.062300
      5 C5           2.7520     0.4050    -1.2970 ca         1 FT2      -0.138000
      6 C6           1.4910    -0.1530    -1.1840 ca         1 FT2      -0.099000
      7 O7          -0.2320    -1.0920     0.2080 os         1 FT2      -0.242200
      8 C8          -1.3490    -0.3480     0.0070 ca         1 FT2       0.130100
      9 C9          -2.5490    -1.0420    -0.1250 ca         1 FT2       0.000400
     10 C10         -3.7450    -0.3720    -0.3100 ca         1 FT2      -0.086000
     11 C11         -3.7360     1.0130    -0.3660 ca         1 FT2       0.004400
     12 C12         -2.5540     1.7210    -0.2350 ca         1 FT2      -0.087000
     13 C13         -1.3630     1.0390    -0.0470 ca         1 FT2      -0.180000
     14 C14          4.8950     1.1960    -0.2710 c3         1 FT2       0.099300
     15 CL15         6.0980    -0.0900    -0.6930 cl         1 FT2      -0.201400
     16 CL16        -5.2260     1.8610    -0.6030 cl         1 FT2      -0.096400
     17 CL17        -2.5380    -2.7640    -0.0510 cl         1 FT2      -0.076400
     18 O18          1.3190    -0.6310     2.4400 oh         1 FT2      -0.486100
     19 H3           3.6280     0.3990     1.9800 ha         1 FT2       0.155000
     20 H5           3.1330     0.6770    -2.2720 ha         1 FT2       0.144000
     21 H6           0.8820    -0.3180    -2.0640 ha         1 FT2       0.151000
     22 H10         -4.6670    -0.9280    -0.4140 ha         1 FT2       0.165000
     23 H12         -2.5500     2.8010    -0.2740 ha         1 FT2       0.153000
     24 H13         -0.4470     1.6050     0.0600 ha         1 FT2       0.154000
     25 H14          4.9550     1.9420    -1.0590 h1         1 FT2       0.073200
     26 H14A         5.2300     1.6380     0.6640 h1         1 FT2       0.073200
     27 HO18         0.4670    -1.0820     2.3890 ho         1 FT2       0.447000
@<TRIPOS>BOND
     1     1     2 ar  
     2     1     6 ar  
     3     1     7 1   
     4     2     3 ar  
     5     2    18 1   
     6     3     4 ar  
     7     3    19 1   
     8     4     5 ar  
     9     4    14 1   
    10     5     6 ar  
    11     5    20 1   
    12     6    21 1   
    13     7     8 1   
    14     8     9 ar  
    15     8    13 ar  
    16     9    10 ar  
    17     9    17 1   
    18    10    11 ar  
    19    10    22 1   
    20    11    12 ar  
    21    11    16 1   
    22    12    13 ar  
    23    12    23 1   
    24    13    24 1   
    25    14    15 1   
    26    14    25 1   
    27    14    26 1   
    28    18    27 1   
@<TRIPOS>SUBSTRUCTURE
     1 FT2         1 TEMP              0 ****  ****    0 ROOT
