@<TRIPOS>MOLECULE
FT3
   28    29     1     0     0
SMALL
bcc


@<TRIPOS>ATOM
      1 C1           1.3940    -0.5530    -0.5090 ca         1 FT3       0.051100
      2 C2           1.9640    -0.3560     0.7500 ca         1 FT3       0.128100
      3 C3           3.2500     0.1630     0.8340 ca         1 FT3      -0.194000
      4 C4           3.9690     0.4760    -0.3160 ca         1 FT3      -0.041300
      5 C5           3.3900     0.2600    -1.5610 ca         1 FT3      -0.157000
      6 C6           2.1000    -0.2440    -1.6550 ca         1 FT3      -0.091000
      7 O7           0.1450    -1.1190    -0.6030 os         1 FT3      -0.215200
      8 C8          -0.9380    -0.3660    -0.3170 ca         1 FT3       0.157100
      9 C9          -2.1580    -1.0330    -0.2080 ca         1 FT3      -0.001600
     10 C10         -3.3300    -0.3470     0.0590 ca         1 FT3      -0.085000
     11 C11         -3.2800     1.0280     0.2220 ca         1 FT3      -0.002600
     12 C12         -2.0810     1.7110     0.1150 ca         1 FT3      -0.086000
     13 C13         -0.9150     1.0130    -0.1550 ca         1 FT3      -0.187000
     14 C14          5.3420     1.0830    -0.2250 c3         1 FT3       0.183700
     15 O15          5.9940     0.6360     0.9380 oh         1 FT3      -0.593800
     16 CL16        -4.7400     1.8950     0.5590 cl         1 FT3      -0.105400
     17 CL17        -2.2000    -2.7460    -0.4110 cl         1 FT3      -0.081400
     18 O18          1.2210    -0.6770     1.8220 oh         1 FT3      -0.476100
     19 H3           3.6910     0.3220     1.8110 ha         1 FT3       0.150000
     20 H5           3.9420     0.4830    -2.4660 ha         1 FT3       0.138000
     21 H6           1.6460    -0.4160    -2.6230 ha         1 FT3       0.152000
     22 H10         -4.2640    -0.8850     0.1400 ha         1 FT3       0.162000
     23 H12         -2.0440     2.7840     0.2380 ha         1 FT3       0.148000
     24 H13          0.0130     1.5620    -0.2450 ha         1 FT3       0.148000
     25 H14          5.9040     0.8280    -1.1320 h1         1 FT3       0.030200
     26 H14A         5.2360     2.1760    -0.2260 h1         1 FT3       0.030200
     27 HO15         6.7550     1.2040     1.0900 ho         1 FT3       0.409000
     28 HO18         1.7140    -0.5090     2.6330 ho         1 FT3       0.431000
@<TRIPOS>BOND
     1     1     2 ar  
     2     1     6 ar  
     3     1     7 1   
     4     2     3 ar  
     5     2    18 1   
     6     3     4 ar  
     7     3    19 1   
     8     4     5 ar  
     9     4    14 1   
    10     5     6 ar  
    11     5    20 1   
    12     6    21 1   
    13     7     8 1   
    14     8     9 ar  
    15     8    13 ar  
    16     9    10 ar  
    17     9    17 1   
    18    10    11 ar  
    19    10    22 1   
    20    11    12 ar  
    21    11    16 1   
    22    12    13 ar  
    23    12    23 1   
    24    13    24 1   
    25    14    15 1   
    26    14    25 1   
    27    14    26 1   
    28    15    27 1   
    29    18    28 1   
@<TRIPOS>SUBSTRUCTURE
     1 FT3         1 TEMP              0 ****  ****    0 ROOT
