@<TRIPOS>MOLECULE
FT3
   28    29     1     0     0
SMALL
No Charge or Current Charge


@<TRIPOS>ATOM
      1 C1           1.4070    -0.5070    -0.5710 ca         1 FT3       0.051100
      2 C2           1.8670    -0.2030     0.7330 ca         1 FT3       0.128100
      3 C3           3.1570     0.3280     0.9090 ca         1 FT3      -0.176000
      4 C4           3.9970     0.5530    -0.2010 ca         1 FT3      -0.041300
      5 C5           3.5350     0.2340    -1.4930 ca         1 FT3      -0.139000
      6 C6           2.2470    -0.2970    -1.6770 ca         1 FT3      -0.073000
      7 O7           0.1500    -1.0310    -0.7860 os         1 FT3      -0.215200
      8 C8          -1.0050    -0.3620    -0.4350 ca         1 FT3       0.157100
      9 C9          -2.1720    -1.0990    -0.1410 ca         1 FT3       0.090000
     10 C10         -3.3590    -0.4320     0.2080 ca         1 FT3      -0.067000
     11 C11         -3.3870     0.9710     0.2590 ca         1 FT3       0.089000
     12 C12         -2.2320     1.7120    -0.0430 ca         1 FT3      -0.068000
     13 C13         -1.0410     1.0490    -0.3930 ca         1 FT3      -0.169000
     14 C14          5.3950     1.1310    -0.0040 c3         1 FT3       0.206900
     15 O15          6.3390     0.0850     0.2570 oh         1 FT3      -0.656000
     16 Cl16        -4.8740     1.8030     0.6950 cl         1 FT3      -0.197000
     17 Cl17        -2.1620    -2.8630    -0.2000 cl         1 FT3      -0.173000
     18 O18          1.0800    -0.4290     1.8310 oh         1 FT3      -0.515100
     19 H3           3.5190     0.5650     1.9070 ha         1 FT3       0.132000
     20 H5           4.1780     0.3960    -2.3560 ha         1 FT3       0.120000
     21 H6           1.8960    -0.5410    -2.6770 ha         1 FT3       0.134000
     22 H10         -4.2550    -1.0020     0.4380 ha         1 FT3       0.144000
     23 H12         -2.2610     2.7990    -0.0070 ha         1 FT3       0.130000
     24 H13         -0.1560     1.6320    -0.6310 ha         1 FT3       0.130000
     25 H14          5.6850     1.6900    -0.9040 h1         1 FT3       0.030200
     26 H14A         5.3750     1.8440     0.8310 h1         1 FT3       0.030200
     27 HO15         7.2140     0.5170     0.3730 ho         1 FT3       0.448000
     28 HO18         1.5800    -0.1720     2.6340 ho         1 FT3       0.470000
@<TRIPOS>BOND
     1     1     2 ar  
     2     1     6 ar  
     3     1     7 1   
     4     2     3 ar  
     5     2    18 1   
     6     3     4 ar  
     7     3    19 1   
     8     4     5 ar  
     9     4    14 1   
    10     5     6 ar  
    11     5    20 1   
    12     6    21 1   
    13     7     8 1   
    14     8     9 ar  
    15     8    13 ar  
    16     9    10 ar  
    17     9    17 1   
    18    10    11 ar  
    19    10    22 1   
    20    11    12 ar  
    21    11    16 1   
    22    12    13 ar  
    23    12    23 1   
    24    13    24 1   
    25    14    15 1   
    26    14    25 1   
    27    14    26 1   
    28    15    27 1   
    29    18    28 1   
@<TRIPOS>SUBSTRUCTURE
     1 FT3         1 TEMP              0 ****  ****    0 ROOT
