@<TRIPOS>MOLECULE
FT4
   49    52     1     0     0
SMALL
No Charge or Current Charge


@<TRIPOS>ATOM
      1 C1           2.0730     2.6950     2.4570 c3         1 FT4       0.189100
      2 N2           2.0730     1.9490     1.1770 n3         1 FT4      -0.738500
      3 C3           0.7610     1.3530     0.7630 c6         1 FT4       0.212500
      4 C5          -0.3360     2.4400     0.5620 c6         1 FT4      -0.063400
      5 C6          -1.5950     1.8530    -0.1280 c6         1 FT4      -0.022200
      6 C7          -1.9610     0.5280     0.4970 cc         1 FT4      -0.009300
      7 C8          -1.1480    -0.2300     1.3290 cd         1 FT4      -0.204400
      8 C9           0.2390     0.2370     1.7260 c6         1 FT4      -0.002200
      9 C10         -1.8380    -1.4420     1.6980 ca         1 FT4      -0.080800
     10 C11         -1.4470    -2.5150     2.5080 ca         1 FT4      -0.084000
     11 C12         -2.3620    -3.5770     2.6740 ca         1 FT4      -0.153000
     12 C13         -3.6240    -3.5410     2.0350 ca         1 FT4      -0.127000
     13 C14         -3.9870    -2.4430     1.2230 ca         1 FT4      -0.098000
     14 C15         -3.0590    -1.3980     1.0760 ca         1 FT4      -0.031200
     15 N16         -3.1480    -0.2160     0.3490 na         1 FT4      -0.013700
     16 C17         -4.3380     0.1430    -0.4430 c3         1 FT4      -0.097400
     17 C18         -4.3120    -0.4550    -1.8570 c          1 FT4       0.709000
     18 O19         -4.9820    -1.4540    -2.0750 o          1 FT4      -0.709000
     19 O20         -3.6470     0.1130    -2.7120 o          1 FT4      -0.709000
     20 S21          3.4800     1.0020     0.9670 sy         1 FT4       1.169600
     21 O22          4.5630     1.9560     0.7040 o          1 FT4      -0.543500
     22 O23          3.5330     0.0420     2.0750 o          1 FT4      -0.543500
     23 C24          3.1620     0.1280    -0.5750 ca         1 FT4      -0.319500
     24 C25          3.2300     0.8280    -1.7970 ca         1 FT4       0.015000
     25 C26          2.9610     0.1560    -3.0020 ca         1 FT4      -0.177500
     26 C27          2.6270    -1.2050    -2.9850 ca         1 FT4       0.218000
     27 C29          2.5580    -1.9060    -1.7720 ca         1 FT4      -0.177500
     28 C30          2.8260    -1.2430    -0.5620 ca         1 FT4       0.015000
     29 F28          2.3680    -1.8470    -4.1450 f          1 FT4      -0.177000
     30 H1           1.9570     2.0170     3.3130 h1         1 FT4       0.046700
     31 H2           3.0160     3.2420     2.5890 h1         1 FT4       0.046700
     32 H3           1.2670     3.4370     2.4950 h1         1 FT4       0.046700
     33 H4           0.8670     0.8880    -0.2270 h1         1 FT4       0.089700
     34 H5          -0.6320     2.8620     1.5310 hc         1 FT4       0.041700
     35 H6           0.0580     3.2710    -0.0390 hc         1 FT4       0.041700
     36 H7          -2.4240     2.5690    -0.0560 hc         1 FT4       0.071200
     37 H8          -1.3960     1.7150    -1.2000 hc         1 FT4       0.071200
     38 H9           0.9290    -0.6150     1.7260 hc         1 FT4       0.033700
     39 H10          0.2070     0.6090     2.7580 hc         1 FT4       0.033700
     40 H11         -0.4730    -2.5300     2.9910 ha         1 FT4       0.093000
     41 H12         -2.0940    -4.4280     3.2960 ha         1 FT4       0.089000
     42 H13         -4.3210    -4.3660     2.1680 ha         1 FT4       0.092000
     43 H14         -4.9550    -2.4160     0.7290 ha         1 FT4       0.118000
     44 H15         -5.2410    -0.1990     0.0750 h1         1 FT4       0.041700
     45 H16         -4.3970     1.2340    -0.5310 h1         1 FT4       0.041700
     46 H18          3.4810     1.8880    -1.8150 ha         1 FT4       0.142000
     47 H19          3.0090     0.6900    -3.9470 ha         1 FT4       0.135000
     48 H20          2.2970    -2.9600    -1.7700 ha         1 FT4       0.135000
     49 H21          2.7670    -1.7960     0.3740 ha         1 FT4       0.142000
@<TRIPOS>BOND
     1     1     2 1   
     2     1    30 1   
     3     1    31 1   
     4     1    32 1   
     5     2     3 1   
     6     2    20 1   
     7     3     4 1   
     8     3     8 1   
     9     3    33 1   
    10     4     5 1   
    11     4    34 1   
    12     4    35 1   
    13     5     6 1   
    14     5    36 1   
    15     5    37 1   
    16     6     7 2   
    17     6    15 1   
    18     7     8 1   
    19     7     9 1   
    20     8    38 1   
    21     8    39 1   
    22     9    10 ar  
    23     9    14 ar  
    24    10    11 ar  
    25    10    40 1   
    26    11    12 ar  
    27    11    41 1   
    28    12    13 ar  
    29    12    42 1   
    30    13    14 ar  
    31    13    43 1   
    32    14    15 1   
    33    15    16 1   
    34    16    17 1   
    35    16    44 1   
    36    16    45 1   
    37    17    18 1   
    38    17    19 1   
    39    20    21 2   
    40    20    22 2   
    41    20    23 1   
    42    23    24 ar  
    43    23    28 ar  
    44    24    25 ar  
    45    24    46 1   
    46    25    26 ar  
    47    25    47 1   
    48    26    27 ar  
    49    26    29 1   
    50    27    28 ar  
    51    27    48 1   
    52    28    49 1   
@<TRIPOS>SUBSTRUCTURE
     1 FT4         1 TEMP              0 ****  ****    0 ROOT
