@<TRIPOS>MOLECULE
FT4
   49    52     1     0     0
SMALL
bcc


@<TRIPOS>ATOM
      1 C1           2.1870     1.8360     2.3850 c3         1 FT4       0.189100
      2 N2           1.7920     1.9840     0.9890 n3         1 FT4      -0.738500
      3 C3           0.4520     1.5140     0.6040 c6         1 FT4       0.212500
      4 C5          -0.6100     2.5060     1.0870 c6         1 FT4      -0.063400
      5 C6          -1.9810     2.1900     0.4860 c6         1 FT4      -0.022200
      6 C7          -2.2390     0.7290     0.5740 cc         1 FT4      -0.009300
      7 C8          -1.2900    -0.2190     0.8320 cd         1 FT4      -0.204400
      8 C9           0.1460     0.0940     1.0910 c6         1 FT4      -0.002200
      9 C10         -1.9480    -1.4830     0.7840 ca         1 FT4      -0.080800
     10 C11         -1.5290    -2.8050     0.9610 ca         1 FT4      -0.102000
     11 C12         -2.4540    -3.8250     0.8330 ca         1 FT4      -0.171000
     12 C13         -3.7950    -3.5460     0.5320 ca         1 FT4      -0.145000
     13 C14         -4.2380    -2.2450     0.3510 ca         1 FT4      -0.116000
     14 C15         -3.3060    -1.2180     0.4850 ca         1 FT4      -0.031200
     15 N16         -3.4610     0.1380     0.3870 na         1 FT4       0.015600
     16 C17         -4.6520     0.8070    -0.0620 c3         1 FT4      -0.126700
     17 C18         -4.7070     1.0610    -1.5860 c          1 FT4       0.919600
     18 O19         -5.7900     1.5270    -1.9910 o          1 FT4      -0.814300
     19 O20         -3.6900     0.8020    -2.2480 o          1 FT4      -0.814300
     20 S21          2.9870     1.9310    -0.1400 sy         1 FT4       1.311200
     21 O22          2.4460     2.4580    -1.3830 o          1 FT4      -0.614300
     22 O23          4.1570     2.5580     0.4530 o          1 FT4      -0.614300
     23 C24          3.3670     0.2220    -0.4080 ca         1 FT4      -0.319500
     24 C25          2.7420    -0.4670    -1.4410 ca         1 FT4      -0.003000
     25 C26          2.9770    -1.8220    -1.6010 ca         1 FT4      -0.195500
     26 C27          3.8360    -2.4540    -0.7220 ca         1 FT4       0.182900
     27 C29          4.4760    -1.7830     0.3040 ca         1 FT4      -0.195500
     28 C30          4.2380    -0.4270     0.4610 ca         1 FT4      -0.003000
     29 F28          4.0610    -3.7620    -0.8730 f          1 FT4      -0.141900
     30 H1           2.5260     0.8280     2.6370 h1         1 FT4       0.046700
     31 H2           2.9690     2.5460     2.6370 h1         1 FT4       0.046700
     32 H3           1.3270     2.0670     3.0090 h1         1 FT4       0.046700
     33 H4           0.4060     1.5130    -0.4880 h1         1 FT4       0.089700
     34 H5          -0.6800     2.4770     2.1780 hc         1 FT4       0.041700
     35 H6          -0.3120     3.5180     0.8080 hc         1 FT4       0.041700
     36 H7          -2.7490     2.7650     1.0080 hc         1 FT4       0.071200
     37 H8          -2.0220     2.5060    -0.5610 hc         1 FT4       0.071200
     38 H9           0.7920    -0.6260     0.5810 hc         1 FT4       0.033700
     39 H10          0.3720     0.0000     2.1590 hc         1 FT4       0.033700
     40 H11         -0.4940    -3.0280     1.1930 ha         1 FT4       0.111000
     41 H12         -2.1430    -4.8530     0.9660 ha         1 FT4       0.107000
     42 H13         -4.4990    -4.3620     0.4330 ha         1 FT4       0.110000
     43 H14         -5.2770    -2.0490     0.1160 ha         1 FT4       0.136000
     44 H15         -5.5200     0.2240     0.2490 h1         1 FT4       0.041700
     45 H16         -4.7440     1.7640     0.4590 h1         1 FT4       0.041700
     46 H18          2.0760     0.0400    -2.1250 ha         1 FT4       0.160000
     47 H19          2.5000    -2.3740    -2.3990 ha         1 FT4       0.153000
     48 H20          5.1510    -2.3060     0.9680 ha         1 FT4       0.153000
     49 H21          4.7400     0.1100     1.2530 ha         1 FT4       0.160000
@<TRIPOS>BOND
     1     1     2 1   
     2     1    30 1   
     3     1    31 1   
     4     1    32 1   
     5     2     3 1   
     6     2    20 1   
     7     3     4 1   
     8     3     8 1   
     9     3    33 1   
    10     4     5 1   
    11     4    34 1   
    12     4    35 1   
    13     5     6 1   
    14     5    36 1   
    15     5    37 1   
    16     6     7 2   
    17     6    15 1   
    18     7     8 1   
    19     7     9 1   
    20     8    38 1   
    21     8    39 1   
    22     9    10 ar  
    23     9    14 ar  
    24    10    11 ar  
    25    10    40 1   
    26    11    12 ar  
    27    11    41 1   
    28    12    13 ar  
    29    12    42 1   
    30    13    14 ar  
    31    13    43 1   
    32    14    15 1   
    33    15    16 1   
    34    16    17 1   
    35    16    44 1   
    36    16    45 1   
    37    17    18 1   
    38    17    19 1   
    39    20    21 2   
    40    20    22 2   
    41    20    23 1   
    42    23    24 ar  
    43    23    28 ar  
    44    24    25 ar  
    45    24    46 1   
    46    25    26 ar  
    47    25    47 1   
    48    26    27 ar  
    49    26    29 1   
    50    27    28 ar  
    51    27    48 1   
    52    28    49 1   
@<TRIPOS>SUBSTRUCTURE
     1 FT4         1 TEMP              0 ****  ****    0 ROOT
