@<TRIPOS>MOLECULE
FT5
   23    23     1     0     0
SMALL
No Charge or Current Charge


@<TRIPOS>ATOM
      1 CAP         -1.0460    -1.5070    -0.0660 c6         1 FT5       0.146300
      2 OAF         -1.2600    -1.7880     1.3340 oh         1 FT5      -0.737500
      3 CAJ          0.4740    -1.3350    -0.3440 c6         1 FT5      -0.086900
      4 CAN          1.0600    -0.0330     0.2920 c6         1 FT5      -0.186700
      5 CAL          2.5770     0.1210     0.0150 c          1 FT5       0.721000
      6 OAC          2.9490     0.2300    -1.1440 o          1 FT5      -0.734000
      7 OAB          3.3370     0.1240     0.9720 o          1 FT5      -0.734000
      8 CAI          0.2500     1.2200    -0.1580 c6         1 FT5      -0.086900
      9 CAM         -1.2640     1.0600     0.1400 c6         1 FT5       0.146300
     10 OAD         -1.9840     2.2220    -0.3150 oh         1 FT5      -0.737500
     11 CAO         -1.8170    -0.2270    -0.5510 c6         1 FT5       0.185300
     12 OAE         -3.2380    -0.3250    -0.3410 oh         1 FT5      -0.663000
     13 H1          -0.8040    -2.6400     1.5240 ho         1 FT5       0.496000
     14 H2           1.0250    -2.2120     0.0230 hc         1 FT5       0.049450
     15 H3           0.6340    -1.3140    -1.4320 hc         1 FT5       0.049450
     16 H4           0.9510    -0.1180     1.3820 hc         1 FT5       0.035700
     17 H6           0.6400     2.1100     0.3560 hc         1 FT5       0.049450
     18 H7           0.3980     1.3930    -1.2340 hc         1 FT5       0.049450
     19 H8          -1.3890     0.9540     1.2280 h1         1 FT5       0.034200
     20 H9          -1.5900     2.9990     0.1460 ho         1 FT5       0.496000
     21 H10         -1.6290    -0.1260    -1.6310 h1         1 FT5       0.033700
     22 H11         -3.5290     0.6140    -0.3050 ho         1 FT5       0.442000
     23 H12         -1.4010    -2.3590    -0.6640 h1         1 FT5       0.034200
@<TRIPOS>BOND
     1     1     2 1   
     2     1     3 1   
     3     1    11 1   
     4     1    23 1   
     5     2    13 1   
     6     3     4 1   
     7     3    14 1   
     8     3    15 1   
     9     4     5 1   
    10     4     8 1   
    11     4    16 1   
    12     5     6 1   
    13     5     7 1   
    14     8     9 1   
    15     8    17 1   
    16     8    18 1   
    17     9    10 1   
    18     9    11 1   
    19     9    19 1   
    20    10    20 1   
    21    11    12 1   
    22    11    21 1   
    23    12    22 1   
@<TRIPOS>SUBSTRUCTURE
     1 FT5         1 TEMP              0 ****  ****    0 ROOT
