@<TRIPOS>MOLECULE
FT5
   23    23     1     0     0
SMALL
bcc


@<TRIPOS>ATOM
      1 CAP         -1.0540    -1.4330    -0.2020 c6         1 FT5       0.123100
      2 OAF         -1.3150    -1.7590     1.1500 oh         1 FT5      -0.615300
      3 CAJ          0.4390    -1.2800    -0.4800 c6         1 FT5      -0.086900
      4 CAN          1.0610    -0.1100     0.2730 c6         1 FT5      -0.186700
      5 CAL          2.5730     0.0660     0.0110 c          1 FT5       0.931600
      6 OAC          3.1630    -0.8300    -0.6250 o          1 FT5      -0.839300
      7 OAB          3.0950     1.0990     0.4790 o          1 FT5      -0.839300
      8 CAI          0.2900     1.1740    -0.0330 c6         1 FT5      -0.086900
      9 CAM         -1.1970     1.0300     0.2590 c6         1 FT5       0.123100
     10 OAD         -1.9280     2.1840    -0.1230 oh         1 FT5      -0.615300
     11 CAO         -1.7840    -0.1380    -0.5240 c6         1 FT5       0.162100
     12 OAE         -3.1590    -0.3150    -0.2740 oh         1 FT5      -0.600800
     13 H1          -0.7480    -2.5000     1.3870 ho         1 FT5       0.397000
     14 H2           0.9460    -2.2150    -0.2290 hc         1 FT5       0.049450
     15 H3           0.5790    -1.1450    -1.5570 hc         1 FT5       0.049450
     16 H4           0.9600    -0.3050     1.3500 hc         1 FT5       0.035700
     17 H6           0.6990     2.0030     0.5480 hc         1 FT5       0.049450
     18 H7           0.4160     1.4360    -1.0910 hc         1 FT5       0.049450
     19 H8          -1.3330     0.8360     1.3320 h1         1 FT5       0.034200
     20 H9          -1.7030     2.8970     0.4820 ho         1 FT5       0.397000
     21 H10         -1.6100     0.0620    -1.5950 h1         1 FT5       0.033700
     22 H11         -3.5940     0.5260    -0.4480 ho         1 FT5       0.403000
     23 H12         -1.4520    -2.2200    -0.8620 h1         1 FT5       0.034200
@<TRIPOS>BOND
     1     1     2 1   
     2     1     3 1   
     3     1    11 1   
     4     1    23 1   
     5     2    13 1   
     6     3     4 1   
     7     3    14 1   
     8     3    15 1   
     9     4     5 1   
    10     4     8 1   
    11     4    16 1   
    12     5     6 1   
    13     5     7 1   
    14     8     9 1   
    15     8    17 1   
    16     8    18 1   
    17     9    10 1   
    18     9    11 1   
    19     9    19 1   
    20    10    20 1   
    21    11    12 1   
    22    11    21 1   
    23    12    22 1   
@<TRIPOS>SUBSTRUCTURE
     1 FT5         1 TEMP              0 ****  ****    0 ROOT
