@<TRIPOS>MOLECULE
FT6
   26    27     1     0     0
SMALL
No Charge or Current Charge


@<TRIPOS>ATOM
      1 N           15.9900   -22.4500    -2.1160 n8         1 FT6      -0.889800
      2 CA          17.2830   -22.4290    -2.9090 c3         1 FT6       0.007500
      3 C           17.8450   -20.9980    -3.3090 c          1 FT6       0.902600
      4 OXT         17.1080   -20.2180    -3.9050 o          1 FT6      -0.836800
      5 CB          17.1790   -23.3200    -4.1780 c3         1 FT6       0.005800
      6 CG          17.0110   -24.8050    -3.9350 cc         1 FT6      -0.079400
      7 CD2         16.8610   -25.8090    -4.9520 ca         1 FT6      -0.117800
      8 CD1         16.9920   -25.4950    -2.7230 cd         1 FT6      -0.106100
      9 NE1         16.8310   -26.8810    -2.9610 na         1 FT6      -0.187400
     10 CE2         16.7570   -27.0230    -4.3330 ca         1 FT6      -0.032200
     11 CZ2         16.6000   -28.2070    -5.0650 ca         1 FT6      -0.206000
     12 CH2         16.5510   -28.1120    -6.4700 ca         1 FT6       0.133900
     13 FAP         16.4010   -29.2310    -7.2100 f          1 FT6      -0.167900
     14 CZ3         16.6590   -26.8590    -7.1130 ca         1 FT6      -0.221000
     15 CE3         16.8170   -25.6820    -6.3490 ca         1 FT6      -0.040000
     16 O           18.9610   -20.6740    -2.9170 o          1 FT6      -0.836800
     17 H           16.1080   -21.8900    -1.2640 hn         1 FT6       0.326800
     18 H2          15.2720   -21.9450    -2.6460 hn         1 FT6       0.326800
     19 HA          18.0500   -22.8780    -2.2630 h1         1 FT6       0.036700
     20 HB2         18.0890   -23.1760    -4.7730 hc         1 FT6       0.053700
     21 HB3         16.3530   -22.9580    -4.8020 hc         1 FT6       0.053700
     22 HD1         17.0790   -25.1020    -1.7160 h4         1 FT6       0.176000
     23 HE1         16.7800   -27.6170    -2.2670 hn         1 FT6       0.286700
     24 HZ2         16.5180   -29.1710    -4.5700 ha         1 FT6       0.135000
     25 HZ3         16.6200   -26.8020    -8.1980 ha         1 FT6       0.135000
     26 HE3         16.9010   -24.7080    -6.8290 ha         1 FT6       0.141000
@<TRIPOS>BOND
     1     1     2 1   
     2     1    17 1   
     3     1    18 1   
     4     2     3 1   
     5     2     5 1   
     6     2    19 1   
     7     3     4 1   
     8     3    16 1   
     9     5     6 1   
    10     5    20 1   
    11     5    21 1   
    12     6     7 1   
    13     6     8 2   
    14     7    10 ar  
    15     7    15 ar  
    16     8     9 1   
    17     8    22 1   
    18     9    10 1   
    19     9    23 1   
    20    10    11 ar  
    21    11    12 ar  
    22    11    24 1   
    23    12    13 1   
    24    12    14 ar  
    25    14    15 ar  
    26    14    25 1   
    27    15    26 1   
@<TRIPOS>SUBSTRUCTURE
     1 FT6         1 TEMP              0 ****  ****    0 ROOT
