@<TRIPOS>MOLECULE
FT6
   26    27     1     0     0
SMALL
bcc


@<TRIPOS>ATOM
      1 N           16.0020   -22.5080    -2.1920 n8         1 FT6      -0.889800
      2 CA          17.2800   -22.4450    -2.8840 c3         1 FT6       0.007500
      3 C           17.7580   -21.0170    -3.2730 c          1 FT6       0.902600
      4 OXT         16.9390   -20.0850    -3.1540 o          1 FT6      -0.836800
      5 CB          17.2460   -23.3130    -4.1440 c3         1 FT6       0.005800
      6 CG          17.0260   -24.7750    -3.9220 cc         1 FT6      -0.079400
      7 CD2         16.8880   -25.7610    -4.9570 ca         1 FT6      -0.117800
      8 CD1         16.9580   -25.4620    -2.7460 cd         1 FT6      -0.106100
      9 NE1         16.7940   -26.8060    -2.9870 na         1 FT6      -0.187400
     10 CE2         16.7420   -27.0180    -4.3270 ca         1 FT6      -0.032200
     11 CZ2         16.5800   -28.2010    -5.0490 ca         1 FT6      -0.206000
     12 CH2         16.5660   -28.0760    -6.4170 ca         1 FT6       0.133900
     13 FAP         16.4070   -29.1890    -7.1620 f          1 FT6      -0.167900
     14 CZ3         16.7080   -26.8590    -7.0860 ca         1 FT6      -0.221000
     15 CE3         16.8700   -25.6980    -6.3530 ca         1 FT6      -0.040000
     16 O           18.9300   -20.9360    -3.6990 o          1 FT6      -0.836800
     17 H           16.0710   -21.9560    -1.3460 hn         1 FT6       0.326800
     18 H2          15.3200   -22.0090    -2.7530 hn         1 FT6       0.326800
     19 HA          18.0390   -22.8610    -2.2110 h1         1 FT6       0.036700
     20 HB2         18.1850   -23.1740    -4.6860 hc         1 FT6       0.053700
     21 HB3         16.4640   -22.9300    -4.8130 hc         1 FT6       0.053700
     22 HD1         16.9930   -25.0960    -1.7330 h4         1 FT6       0.176000
     23 HE1         16.7060   -27.5130    -2.2760 hn         1 FT6       0.286700
     24 HZ2         16.4700   -29.1650    -4.5680 ha         1 FT6       0.135000
     25 HZ3         16.6920   -26.8340    -8.1680 ha         1 FT6       0.135000
     26 HE3         16.9800   -24.7520    -6.8680 ha         1 FT6       0.141000
@<TRIPOS>BOND
     1     1     2 1   
     2     1    17 1   
     3     1    18 1   
     4     2     3 1   
     5     2     5 1   
     6     2    19 1   
     7     3     4 1   
     8     3    16 1   
     9     5     6 1   
    10     5    20 1   
    11     5    21 1   
    12     6     7 1   
    13     6     8 2   
    14     7    10 ar  
    15     7    15 ar  
    16     8     9 1   
    17     8    22 1   
    18     9    10 1   
    19     9    23 1   
    20    10    11 ar  
    21    11    12 ar  
    22    11    24 1   
    23    12    13 1   
    24    12    14 ar  
    25    14    15 ar  
    26    14    25 1   
    27    15    26 1   
@<TRIPOS>SUBSTRUCTURE
     1 FT6         1 TEMP              0 ****  ****    0 ROOT
