@<TRIPOS>MOLECULE
FT7
   58    61     1     0     0
SMALL
No Charge or Current Charge


@<TRIPOS>ATOM
      1 C10         -4.4260    -0.3820    -3.5140 c3         1 FT7      -0.088100
      2 C15          0.4910     0.3240     0.8000 ca         1 FT7      -0.135000
      3 C17          0.9880    -1.9420     0.1530 ca         1 FT7      -0.110800
      4 C20          3.2230    -2.1360     0.7320 cc         1 FT7      -0.055300
      5 C21          2.1420    -2.8140     0.1770 cd         1 FT7      -0.114400
      6 C22          2.1610    -4.2380    -0.3210 c3         1 FT7      -0.018900
      7 C26          4.1930     1.5860    -0.4280 ca         1 FT7       0.223000
      8 C28          6.5310     1.9340    -0.9630 ca         1 FT7       0.209000
      9 C01         -6.4430     2.4090     1.3580 ca         1 FT7      -0.111500
     10 C02         -7.3830     1.6570     2.0800 ca         1 FT7      -0.108000
     11 C03         -7.5320     0.2860     1.8180 ca         1 FT7      -0.111500
     12 C04         -6.7440    -0.3330     0.8320 ca         1 FT7      -0.094000
     13 C05         -5.8010     0.4150     0.0970 ca         1 FT7      -0.098300
     14 C06         -5.6540     1.7920     0.3710 ca         1 FT7      -0.094000
     15 C07         -4.9460    -0.2710    -0.9670 c3         1 FT7       0.161000
     16 C09         -5.1270     0.3740    -2.3650 c3         1 FT7      -0.087400
     17 C12         -1.2610    -1.1050    -0.1910 ca         1 FT7      -0.187600
     18 C14         -0.8370     0.1400     0.3590 ca         1 FT7      -0.072000
     19 C16          1.3890    -0.7480     0.6820 ca         1 FT7      -0.012200
     20 C18         -0.3230    -2.1630    -0.2930 ca         1 FT7       0.004000
     21 C25          4.5530     0.8600     0.7270 ca         1 FT7      -0.176300
     22 C27          5.1780     2.1210    -1.2710 ca         1 FT7      -0.201000
     23 C29          6.9050     1.2190     0.1830 ca         1 FT7      -0.173000
     24 C30          5.9190     0.6830     1.0300 ca         1 FT7      -0.050000
     25 F32          7.4810     2.4480    -1.7740 f          1 FT7      -0.168000
     26 N08         -3.5440    -0.2720    -0.5490 ns         1 FT7      -0.501900
     27 N19          2.7340    -0.8460     1.0290 na         1 FT7      -0.091700
     28 H1          -4.7620    -1.4250    -3.5560 hc         1 FT7       0.035033
     29 H2          -4.6560     0.0900    -4.4770 hc         1 FT7       0.035033
     30 H3          -3.3370    -0.3720    -3.3850 hc         1 FT7       0.035033
     31 H4           0.7950     1.2820     1.2130 ha         1 FT7       0.115000
     32 H5           1.9970    -4.9420     0.5030 hc         1 FT7       0.040033
     33 H6           1.3830    -4.4130    -1.0720 hc         1 FT7       0.040033
     34 H7           3.1230    -4.4830    -0.7870 hc         1 FT7       0.040033
     35 H10         -6.3240     3.4710     1.5620 ha         1 FT7       0.111000
     36 H11         -7.9930     2.1350     2.8440 ha         1 FT7       0.110000
     37 H12         -8.2590    -0.2990     2.3780 ha         1 FT7       0.111000
     38 H13         -6.8690    -1.3970     0.6400 ha         1 FT7       0.110000
     39 H14         -4.9270     2.3870    -0.1770 ha         1 FT7       0.110000
     40 H15         -5.2850    -1.3140    -1.0440 h1         1 FT7       0.077700
     41 H16         -4.7620     1.4070    -2.3490 hc         1 FT7       0.046700
     42 H17         -6.2000     0.4230    -2.5890 hc         1 FT7       0.046700
     43 H18         -1.5230     0.9780     0.4530 ha         1 FT7       0.106000
     44 H19         -0.6070    -3.1280    -0.7050 ha         1 FT7       0.139000
     45 H23          4.8920     2.6790    -2.1570 ha         1 FT7       0.155000
     46 H24          7.9580     1.0800     0.4150 ha         1 FT7       0.140000
     47 H25          6.2190     0.1280     1.9180 ha         1 FT7       0.120000
     48 H26         -3.1740     0.5700    -0.1320 hn         1 FT7       0.310500
     49 C11         -2.6760    -1.3340    -0.6720 c          1 FT7       0.617700
     50 C23          4.6330    -2.6080     0.9780 c3         1 FT7      -0.036900
     51 C24          3.4880     0.2650     1.6470 c3         1 FT7       0.138900
     52 O13         -3.0350    -2.4050    -1.1440 o          1 FT7      -0.605100
     53 F31          2.8930     1.7870    -0.7350 f          1 FT7      -0.160000
     54 H8           3.9620    -0.1160     2.5600 h1         1 FT7       0.065700
     55 H9           2.8020     1.0580     1.9620 h1         1 FT7       0.065700
     56 H20          5.3120    -2.2180     0.2110 hc         1 FT7       0.047700
     57 H21          4.9970    -2.2740     1.9570 hc         1 FT7       0.047700
     58 H22          4.6980    -3.7020     0.9610 hc         1 FT7       0.047700
@<TRIPOS>BOND
     1     1    16 1   
     2     1    28 1   
     3     1    29 1   
     4     1    30 1   
     5     2    18 ar  
     6     2    19 ar  
     7     2    31 1   
     8     3     5 1   
     9     3    19 ar  
    10     3    20 ar  
    11     4     5 2   
    12     4    27 1   
    13     4    50 1   
    14     5     6 1   
    15     6    32 1   
    16     6    33 1   
    17     6    34 1   
    18     7    21 ar  
    19     7    22 ar  
    20     7    53 1   
    21     8    22 ar  
    22     8    23 ar  
    23     8    25 1   
    24     9    10 ar  
    25     9    14 ar  
    26     9    35 1   
    27    10    11 ar  
    28    10    36 1   
    29    11    12 ar  
    30    11    37 1   
    31    12    13 ar  
    32    12    38 1   
    33    13    14 ar  
    34    13    15 1   
    35    14    39 1   
    36    15    16 1   
    37    15    26 1   
    38    15    40 1   
    39    16    41 1   
    40    16    42 1   
    41    17    18 ar  
    42    17    20 ar  
    43    17    49 1   
    44    18    43 1   
    45    19    27 1   
    46    20    44 1   
    47    21    24 ar  
    48    21    51 1   
    49    22    45 1   
    50    23    24 ar  
    51    23    46 1   
    52    24    47 1   
    53    26    48 1   
    54    26    49 1   
    55    27    51 1   
    56    49    52 2   
    57    50    56 1   
    58    50    57 1   
    59    50    58 1   
    60    51    54 1   
    61    51    55 1   
@<TRIPOS>SUBSTRUCTURE
     1 FT7         1 TEMP              0 ****  ****    0 ROOT
