@<TRIPOS>MOLECULE
FT7
   58    61     1     0     0
SMALL
bcc


@<TRIPOS>ATOM
      1 C10         -4.4980     2.0870    -3.0550 c3         1 FT7      -0.088100
      2 C15          0.7540     0.9360    -0.1030 ca         1 FT7      -0.153000
      3 C17          0.7920    -1.3800     0.6800 ca         1 FT7      -0.110800
      4 C20          2.8970    -1.5250     1.4380 cc         1 FT7      -0.055300
      5 C21          1.7480    -2.2520     1.2910 cd         1 FT7      -0.114400
      6 C22          1.4960    -3.6690     1.6810 c3         1 FT7      -0.018900
      7 C26          4.5720     0.3930    -1.4230 ca         1 FT7       0.187900
      8 C28          6.8750     0.1660    -1.8870 ca         1 FT7       0.173900
      9 C01         -6.4460     0.0020     2.1420 ca         1 FT7      -0.129500
     10 C02         -7.3940    -0.9880     1.9150 ca         1 FT7      -0.126000
     11 C03         -7.4840    -1.5770     0.6610 ca         1 FT7      -0.129500
     12 C04         -6.6290    -1.1780    -0.3580 ca         1 FT7      -0.112000
     13 C05         -5.6790    -0.1860    -0.1420 ca         1 FT7      -0.098300
     14 C06         -5.5960     0.4000     1.1190 ca         1 FT7      -0.112000
     15 C07         -4.7890     0.2810    -1.2740 c3         1 FT7       0.161000
     16 C09         -5.2580     1.6320    -1.8160 c3         1 FT7      -0.087400
     17 C12         -1.2180    -0.4860    -0.2840 ca         1 FT7      -0.187600
     18 C14         -0.5620     0.7470    -0.4730 ca         1 FT7      -0.090000
     19 C16          1.4260    -0.1360     0.4800 ca         1 FT7      -0.012200
     20 C18         -0.5310    -1.5500     0.2840 ca         1 FT7      -0.014000
     21 C25          4.8150     0.5700    -0.0680 ca         1 FT7      -0.176300
     22 C27          5.5730     0.1850    -2.3500 ca         1 FT7      -0.219000
     23 C29          7.1870     0.3480    -0.5550 ca         1 FT7      -0.191000
     24 C30          6.1440     0.5470     0.3390 ca         1 FT7      -0.068000
     25 F32          7.8620    -0.0330    -2.7700 f          1 FT7      -0.132900
     26 N08         -3.3990     0.3730    -0.8790 ns         1 FT7      -0.568900
     27 N19          2.7030    -0.2440     0.9450 na         1 FT7      -0.062400
     28 H1          -4.5470     1.3350    -3.8440 hc         1 FT7       0.035033
     29 H2          -4.9240     3.0100    -3.4480 hc         1 FT7       0.035033
     30 H3          -3.4450     2.2770    -2.8450 hc         1 FT7       0.035033
     31 H4           1.2320     1.8910    -0.2780 ha         1 FT7       0.133000
     32 H5           0.7410    -3.7430     2.4670 hc         1 FT7       0.040033
     33 H6           1.1320    -4.2550     0.8350 hc         1 FT7       0.040033
     34 H7           2.3970    -4.1580     2.0500 hc         1 FT7       0.040033
     35 H10         -6.3690     0.4660     3.1160 ha         1 FT7       0.129000
     36 H11         -8.0580    -1.2990     2.7120 ha         1 FT7       0.128000
     37 H12         -8.2160    -2.3530     0.4790 ha         1 FT7       0.129000
     38 H13         -6.7000    -1.6460    -1.3330 ha         1 FT7       0.128000
     39 H14         -4.8590     1.1720     1.3100 ha         1 FT7       0.128000
     40 H15         -4.8570    -0.4510    -2.0840 h1         1 FT7       0.077700
     41 H16         -5.1820     2.3870    -1.0260 hc         1 FT7       0.046700
     42 H17         -6.3210     1.5450    -2.0510 hc         1 FT7       0.046700
     43 H18         -1.0710     1.5740    -0.9520 ha         1 FT7       0.124000
     44 H19         -1.0260    -2.5030     0.4230 ha         1 FT7       0.157000
     45 H23          5.3440     0.0490    -3.3990 ha         1 FT7       0.173000
     46 H24          8.2150     0.3330    -0.2200 ha         1 FT7       0.158000
     47 H25          6.3750     0.6900     1.3870 ha         1 FT7       0.138000
     48 H26         -3.0650     1.2680    -0.5610 hn         1 FT7       0.310500
     49 C11         -2.6270    -0.7190    -0.7070 c          1 FT7       0.684700
     50 C23          4.1960    -1.9280     2.0370 c3         1 FT7      -0.036900
     51 C24          3.7020     0.8000     0.9230 c3         1 FT7       0.109600
     52 O13         -3.0610    -1.8490    -0.8960 o          1 FT7      -0.605100
     53 F31          3.3090     0.4280    -1.8650 f          1 FT7      -0.124900
     54 H8           4.1350     0.9060     1.9190 h1         1 FT7       0.065700
     55 H9           3.1960     1.7440     0.7180 h1         1 FT7       0.065700
     56 H20          5.0060    -1.9340     1.3060 hc         1 FT7       0.047700
     57 H21          4.4940    -1.2630     2.8500 hc         1 FT7       0.047700
     58 H22          4.1230    -2.9310     2.4530 hc         1 FT7       0.047700
@<TRIPOS>BOND
     1     1    16 1   
     2     1    28 1   
     3     1    29 1   
     4     1    30 1   
     5     2    18 ar  
     6     2    19 ar  
     7     2    31 1   
     8     3     5 1   
     9     3    19 ar  
    10     3    20 ar  
    11     4     5 2   
    12     4    27 1   
    13     4    50 1   
    14     5     6 1   
    15     6    32 1   
    16     6    33 1   
    17     6    34 1   
    18     7    21 ar  
    19     7    22 ar  
    20     7    53 1   
    21     8    22 ar  
    22     8    23 ar  
    23     8    25 1   
    24     9    10 ar  
    25     9    14 ar  
    26     9    35 1   
    27    10    11 ar  
    28    10    36 1   
    29    11    12 ar  
    30    11    37 1   
    31    12    13 ar  
    32    12    38 1   
    33    13    14 ar  
    34    13    15 1   
    35    14    39 1   
    36    15    16 1   
    37    15    26 1   
    38    15    40 1   
    39    16    41 1   
    40    16    42 1   
    41    17    18 ar  
    42    17    20 ar  
    43    17    49 1   
    44    18    43 1   
    45    19    27 1   
    46    20    44 1   
    47    21    24 ar  
    48    21    51 1   
    49    22    45 1   
    50    23    24 ar  
    51    23    46 1   
    52    24    47 1   
    53    26    48 1   
    54    26    49 1   
    55    27    51 1   
    56    49    52 2   
    57    50    56 1   
    58    50    57 1   
    59    50    58 1   
    60    51    54 1   
    61    51    55 1   
@<TRIPOS>SUBSTRUCTURE
     1 FT7         1 TEMP              0 ****  ****    0 ROOT
