@<TRIPOS>MOLECULE
FT8
   50    52     1     0     0
SMALL
bcc


@<TRIPOS>ATOM
      1 C1          -3.6030     0.6830     0.6730 c6         1 FT8       0.242800
      2 C10         -2.8980    -2.4890    -0.8310 c          1 FT8       0.934600
      3 C11          1.2580     1.2760     0.6060 c          1 FT8       0.678100
      4 C12          2.7310     1.0840     0.2890 c3         1 FT8      -0.029600
      5 C13          3.1720    -0.3080     0.7610 c3         1 FT8      -0.032100
      6 C14          4.5770    -0.6410     0.3540 ca         1 FT8      -0.069300
      7 C15          5.6370    -0.4950     1.2450 ca         1 FT8      -0.114000
      8 C16          6.9390    -0.7790     0.8540 ca         1 FT8      -0.133000
      9 C17          7.2000    -1.2110    -0.4390 ca         1 FT8      -0.135000
     10 C18          6.1500    -1.3620    -1.3370 ca         1 FT8      -0.133000
     11 C19          4.8500    -1.0790    -0.9400 ca         1 FT8      -0.114000
     12 C2          -1.3730    -0.1760     0.1600 c          1 FT8       0.704500
     13 C3          -0.9850     1.2330    -0.3200 c3         1 FT8       0.020700
     14 C4          -1.6510     1.5440    -1.6720 c3         1 FT8      -0.083400
     15 C5          -3.0260     2.1880    -1.5800 c3         1 FT8       0.030700
     16 C6          -4.7020     0.4130     1.7260 c6         1 FT8      -0.061400
     17 C7          -4.7310    -1.0260     2.2180 c6         1 FT8      -0.076400
     18 C8          -4.5050    -1.9440     1.0340 c6         1 FT8      -0.073400
     19 C9          -3.0680    -1.7980     0.5440 c6         1 FT8      -0.032300
     20 N1          -2.6510    -0.3960     0.5440 n          1 FT8      -0.420800
     21 N2           0.4470     1.3040    -0.4620 ns         1 FT8      -0.531900
     22 O1          -2.9960    -3.7330    -0.7850 o          1 FT8      -0.826300
     23 O2          -2.7270    -1.7860    -1.8390 o          1 FT8      -0.826300
     24 O3          -0.5440    -1.0710     0.1380 o          1 FT8      -0.626500
     25 O4           0.8570     1.3800     1.7550 o          1 FT8      -0.608100
     26 S1          -4.3670     1.1640    -0.9180 ss         1 FT8      -0.371200
     27 S2           3.7110     2.4350     1.0080 sh         1 FT8      -0.408900
     28 H1          -3.0620     1.5670     1.0060 h2         1 FT8       0.046700
     29 H2           2.9020     1.1720    -0.7870 h1         1 FT8       0.085700
     30 H3           3.0640    -0.3680     1.8460 hc         1 FT8       0.078700
     31 H4           2.4780    -1.0370     0.3330 hc         1 FT8       0.078700
     32 H5           5.4410    -0.1620     2.2570 ha         1 FT8       0.132000
     33 H6           7.7500    -0.6620     1.5610 ha         1 FT8       0.124000
     34 H7           8.2140    -1.4320    -0.7460 ha         1 FT8       0.121000
     35 H8           6.3440    -1.7040    -2.3450 ha         1 FT8       0.124000
     36 H9           4.0360    -1.2060    -1.6460 ha         1 FT8       0.132000
     37 H10         -1.2720     1.9910     0.4130 h1         1 FT8       0.070700
     38 H11         -1.0110     2.2630    -2.1910 hc         1 FT8       0.071200
     39 H12         -1.6910     0.6420    -2.2840 hc         1 FT8       0.071200
     40 H13         -2.9650     3.1070    -0.9930 h1         1 FT8       0.051700
     41 H14         -3.3520     2.4730    -2.5810 h1         1 FT8       0.051700
     42 H15         -4.5590     1.1040     2.5580 hc         1 FT8       0.039200
     43 H16         -5.6760     0.6550     1.2980 hc         1 FT8       0.039200
     44 H17         -3.9570    -1.1990     2.9710 hc         1 FT8       0.031200
     45 H18         -5.6900    -1.2240     2.6990 hc         1 FT8       0.031200
     46 H19         -4.6680    -2.9900     1.2950 hc         1 FT8       0.055200
     47 H20         -5.2210    -1.7040     0.2400 hc         1 FT8       0.055200
     48 H21         -2.4360    -2.3270     1.2630 h1         1 FT8       0.056700
     49 H22          0.8380     1.0800    -1.3650 hn         1 FT8       0.316500
     50 H24          3.4260     2.1750     2.2890 hs         1 FT8       0.231800
@<TRIPOS>BOND
     1     1    16 1   
     2     1    20 1   
     3     1    26 1   
     4     1    28 1   
     5     2    19 1   
     6     2    22 1   
     7     2    23 1   
     8     3     4 1   
     9     3    21 1   
    10     3    25 2   
    11     4     5 1   
    12     4    27 1   
    13     4    29 1   
    14     5     6 1   
    15     5    30 1   
    16     5    31 1   
    17     6     7 ar  
    18     6    11 ar  
    19     7     8 ar  
    20     7    32 1   
    21     8     9 ar  
    22     8    33 1   
    23     9    10 ar  
    24     9    34 1   
    25    10    11 ar  
    26    10    35 1   
    27    11    36 1   
    28    12    13 1   
    29    12    20 1   
    30    12    24 2   
    31    13    14 1   
    32    13    21 1   
    33    13    37 1   
    34    14    15 1   
    35    14    38 1   
    36    14    39 1   
    37    15    26 1   
    38    15    40 1   
    39    15    41 1   
    40    16    17 1   
    41    16    42 1   
    42    16    43 1   
    43    17    18 1   
    44    17    44 1   
    45    17    45 1   
    46    18    19 1   
    47    18    46 1   
    48    18    47 1   
    49    19    20 1   
    50    19    48 1   
    51    21    49 1   
    52    27    50 1   
@<TRIPOS>SUBSTRUCTURE
     1 FT8         1 TEMP              0 ****  ****    0 ROOT
