@<TRIPOS>MOLECULE
FT8
   50    52     1     0     0
SMALL
No Charge or Current Charge


@<TRIPOS>ATOM
      1 C1          -3.7830     0.4380     0.8350 c6         1 FT8       0.290700
      2 C10         -4.0500    -2.3680    -1.6090 c          1 FT8       0.724000
      3 C11          1.5190     1.2940     0.2160 c          1 FT8       0.611100
      4 C12          2.9420     0.8500    -0.2100 c3         1 FT8       0.018300
      5 C13          3.7760     0.3980     1.0140 c3         1 FT8      -0.032100
      6 C14          5.1110    -0.2290     0.6220 ca         1 FT8      -0.069300
      7 C15          6.3140     0.4850     0.7950 ca         1 FT8      -0.096000
      8 C16          7.5420    -0.0980     0.4340 ca         1 FT8      -0.115000
      9 C17          7.5750    -1.3970    -0.1000 ca         1 FT8      -0.117000
     10 C18          6.3790    -2.1130    -0.2730 ca         1 FT8      -0.115000
     11 C19          5.1510    -1.5320     0.0870 ca         1 FT8      -0.096000
     12 C2          -1.7570    -0.5200    -0.3590 c          1 FT8       0.562000
     13 C3          -0.9560     0.7970    -0.0710 c3         1 FT8       0.020700
     14 C4          -1.4490     2.0190    -0.8920 c3         1 FT8      -0.083400
     15 C5          -2.6340     2.7800    -0.2740 c3         1 FT8       0.078600
     16 C6          -5.0510     0.0710     1.6540 c6         1 FT8      -0.061400
     17 C7          -5.1270    -1.4180     2.0060 c6         1 FT8      -0.076400
     18 C8          -5.1290    -2.1980     0.6870 c6         1 FT8      -0.073400
     19 C9          -3.8110    -1.9930    -0.1070 c6         1 FT8      -0.032300
     20 N1          -3.0780    -0.6800     0.1340 n          1 FT8      -0.353800
     21 N2           0.4840     0.5610    -0.3280 ns         1 FT8      -0.464900
     22 O1          -3.6470    -3.4660    -1.9730 o          1 FT8      -0.721000
     23 O2          -4.2280    -1.4560    -2.4070 o          1 FT8      -0.721000
     24 O3          -1.2100    -1.4370    -0.9640 o          1 FT8      -0.551000
     25 O4           1.3180     2.2300     0.9810 o          1 FT8      -0.608100
     26 S1          -4.1860     1.7950    -0.3480 ss         1 FT8      -0.467000
     27 S2           3.7710     2.1980    -1.2070 sh         1 FT8      -0.456800
     28 H1          -3.0720     0.8610     1.5580 h2         1 FT8       0.046700
     29 H2           2.8260    -0.0140    -0.8750 h1         1 FT8       0.085700
     30 H3           3.9330     1.2550     1.6800 hc         1 FT8       0.078700
     31 H4           3.1920    -0.3290     1.5920 hc         1 FT8       0.078700
     32 H5           6.2990     1.4920     1.2040 ha         1 FT8       0.114000
     33 H6           8.4670     0.4590     0.5680 ha         1 FT8       0.106000
     34 H7           8.5250    -1.8470    -0.3790 ha         1 FT8       0.103000
     35 H8           6.4030    -3.1200    -0.6860 ha         1 FT8       0.106000
     36 H9           4.2300    -2.0950    -0.0490 ha         1 FT8       0.114000
     37 H10         -1.0580     1.0190     0.9990 h1         1 FT8       0.070700
     38 H11         -0.6290     2.7410    -0.9830 hc         1 FT8       0.071200
     39 H12         -1.6950     1.7080    -1.9150 hc         1 FT8       0.071200
     40 H13         -2.4120     3.0460     0.7690 h1         1 FT8       0.051700
     41 H14         -2.7920     3.7100    -0.8340 h1         1 FT8       0.051700
     42 H15         -5.0820     0.6770     2.5690 hc         1 FT8       0.039200
     43 H16         -5.9520     0.3420     1.0860 hc         1 FT8       0.039200
     44 H17         -4.2770    -1.7160     2.6360 hc         1 FT8       0.031200
     45 H18         -6.0440    -1.6270     2.5730 hc         1 FT8       0.031200
     46 H19         -5.2820    -3.2690     0.8790 hc         1 FT8       0.055200
     47 H20         -5.9840    -1.8740     0.0770 hc         1 FT8       0.055200
     48 H21         -3.1290    -2.7690     0.2700 h1         1 FT8       0.056700
     49 H22          0.7330    -0.2090    -0.9400 hn         1 FT8       0.316500
     50 H24          3.6510     3.1690    -0.2650 hs         1 FT8       0.231800
@<TRIPOS>BOND
     1     1    16 1   
     2     1    20 1   
     3     1    26 1   
     4     1    28 1   
     5     2    19 1   
     6     2    22 1   
     7     2    23 1   
     8     3     4 1   
     9     3    21 1   
    10     3    25 2   
    11     4     5 1   
    12     4    27 1   
    13     4    29 1   
    14     5     6 1   
    15     5    30 1   
    16     5    31 1   
    17     6     7 ar  
    18     6    11 ar  
    19     7     8 ar  
    20     7    32 1   
    21     8     9 ar  
    22     8    33 1   
    23     9    10 ar  
    24     9    34 1   
    25    10    11 ar  
    26    10    35 1   
    27    11    36 1   
    28    12    13 1   
    29    12    20 1   
    30    12    24 2   
    31    13    14 1   
    32    13    21 1   
    33    13    37 1   
    34    14    15 1   
    35    14    38 1   
    36    14    39 1   
    37    15    26 1   
    38    15    40 1   
    39    15    41 1   
    40    16    17 1   
    41    16    42 1   
    42    16    43 1   
    43    17    18 1   
    44    17    44 1   
    45    17    45 1   
    46    18    19 1   
    47    18    46 1   
    48    18    47 1   
    49    19    20 1   
    50    19    48 1   
    51    21    49 1   
    52    27    50 1   
@<TRIPOS>SUBSTRUCTURE
     1 FT8         1 TEMP              0 ****  ****    0 ROOT
