@<TRIPOS>MOLECULE
FTA
   36    38     1     0     0
SMALL
No Charge or Current Charge


@<TRIPOS>ATOM
      1 N8           3.6980     1.1100    -0.1760 nu         1 FTA      -0.996000
      2 C24          4.8380     0.3270     0.0140 ca         1 FTA       0.318000
      3 C26          6.0600     0.7630    -0.5260 ca         1 FTA      -0.168000
      4 C28          7.2310     0.0070    -0.3400 ca         1 FTA      -0.074500
      5 C30          7.1840    -1.1870     0.3990 ca         1 FTA      -0.144000
      6 C29          5.9700    -1.6190     0.9580 ca         1 FTA      -0.074500
      7 C27          4.8010    -0.8600     0.7690 ca         1 FTA      -0.168000
      8 C7           2.3280     0.8350    -0.1610 ca         1 FTA       0.312000
      9 C6           1.4240     1.8800     0.0910 ca         1 FTA      -0.141000
     10 C4           0.0370     1.6380     0.0980 ca         1 FTA      -0.106000
     11 C5           1.8290    -0.4510    -0.4370 ca         1 FTA      -0.141000
     12 C3           0.4420    -0.6950    -0.4310 ca         1 FTA      -0.106000
     13 C2          -0.4620     0.3480    -0.1540 ca         1 FTA       0.241000
     14 N1          -1.8430     0.1330    -0.1460 nu         1 FTA      -0.797000
     15 C17         -2.5910    -1.0270     0.0750 c2         1 FTA       0.150000
     16 C14         -3.9460    -1.0130     0.1280 ce         1 FTA      -0.248500
     17 C18         -4.6060    -2.2600     0.3540 cg         1 FTA       0.317700
     18 N21         -5.0950    -3.3020     0.5430 n1         1 FTA      -0.477000
     19 C13         -4.8540     0.1410    -0.0160 cc         1 FTA       0.606800
     20 N15         -6.1660     0.0470    -0.0680 nd         1 FTA      -0.516800
     21 N19         -6.4910     1.3720    -0.2080 na         1 FTA       0.117600
     22 N20         -5.4010     2.2020    -0.2380 nd         1 FTA      -0.165800
     23 N16         -4.3700     1.4170    -0.1180 nc         1 FTA      -0.447000
     24 H8           3.9120     2.0900    -0.3690 hn         1 FTA       0.495000
     25 H26          6.1040     1.6840    -1.0990 ha         1 FTA       0.116000
     26 H28          8.1730     0.3460    -0.7680 ha         1 FTA       0.113000
     27 H30          8.0890    -1.7730     0.5450 ha         1 FTA       0.116000
     28 H29          5.9350    -2.5370     1.5410 ha         1 FTA       0.113000
     29 H27          3.8750    -1.1900     1.2270 ha         1 FTA       0.116000
     30 H6           1.7930     2.8820     0.2920 ha         1 FTA       0.124500
     31 H4          -0.6480     2.4560     0.3040 ha         1 FTA       0.122000
     32 H5           2.5090    -1.2610    -0.6790 ha         1 FTA       0.124500
     33 H3           0.0790    -1.6920    -0.6580 ha         1 FTA       0.122000
     34 H1          -2.4040     0.9940    -0.1580 hn         1 FTA       0.536000
     35 H17         -2.0160    -1.9500     0.2070 h4         1 FTA       0.203000
     36 H19         -7.4470     1.7210    -0.2840 hn         1 FTA       0.407000
@<TRIPOS>BOND
     1     1     2 1   
     2     1     8 1   
     3     1    24 1   
     4     2     3 ar  
     5     2     7 ar  
     6     3     4 ar  
     7     3    25 1   
     8     4     5 ar  
     9     4    26 1   
    10     5     6 ar  
    11     5    27 1   
    12     6     7 ar  
    13     6    28 1   
    14     7    29 1   
    15     8     9 ar  
    16     8    11 ar  
    17     9    10 ar  
    18     9    30 1   
    19    10    13 ar  
    20    10    31 1   
    21    11    12 ar  
    22    11    32 1   
    23    12    13 ar  
    24    12    33 1   
    25    13    14 1   
    26    14    15 1   
    27    14    34 1   
    28    15    16 2   
    29    15    35 1   
    30    16    17 1   
    31    16    19 1   
    32    17    18 3   
    33    19    20 2   
    34    19    23 1   
    35    20    21 1   
    36    21    22 1   
    37    21    36 1   
    38    22    23 2   
@<TRIPOS>SUBSTRUCTURE
     1 FTA         1 TEMP              0 ****  ****    0 ROOT
