@<TRIPOS>MOLECULE
FTA
   36    38     1     0     0
SMALL
bcc


@<TRIPOS>ATOM
      1 N8           3.7100     1.1960    -0.2150 nu         1 FTA      -0.664000
      2 C24          4.7680     0.3260    -0.0080 ca         1 FTA       0.179600
      3 C26          6.0180     0.6560    -0.5450 ca         1 FTA      -0.186000
      4 C28          7.1170    -0.1580    -0.3280 ca         1 FTA      -0.092500
      5 C30          6.9990    -1.3260     0.4160 ca         1 FTA      -0.162000
      6 C29          5.7620    -1.6540     0.9530 ca         1 FTA      -0.092500
      7 C27          4.6560    -0.8390     0.7570 ca         1 FTA      -0.186000
      8 C7           2.3540     0.9240    -0.1700 ca         1 FTA       0.173600
      9 C6           1.4640     1.9670     0.1060 ca         1 FTA      -0.159000
     10 C4           0.1000     1.7520     0.1270 ca         1 FTA      -0.124000
     11 C5           1.8190    -0.3360    -0.4490 ca         1 FTA      -0.159000
     12 C3           0.4520    -0.5520    -0.4230 ca         1 FTA      -0.124000
     13 C2          -0.4230     0.4860    -0.1190 ca         1 FTA       0.102600
     14 N1          -1.8140     0.3140    -0.0650 nu         1 FTA      -0.603400
     15 C17         -2.4470    -0.8420     0.0960 c2         1 FTA       0.200000
     16 C14         -3.8100    -1.0160     0.1210 ce         1 FTA      -0.248500
     17 C18         -4.3130    -2.3200     0.3200 cg         1 FTA       0.228500
     18 N21         -4.7330    -3.3840     0.4830 n1         1 FTA      -0.387800
     19 C13         -4.7630     0.0590    -0.0310 cc         1 FTA       0.606800
     20 N15         -6.0770    -0.0850    -0.0120 nd         1 FTA      -0.516800
     21 N19         -6.4760     1.1500    -0.1800 na         1 FTA       0.167900
     22 N20         -5.5260     2.0170    -0.2970 nd         1 FTA      -0.165800
     23 N16         -4.4200     1.3520    -0.2060 nc         1 FTA      -0.447000
     24 H8           3.9610     2.1490    -0.4250 hn         1 FTA       0.439800
     25 H26          6.1220     1.5570    -1.1390 ha         1 FTA       0.134000
     26 H28          8.0730     0.1220    -0.7530 ha         1 FTA       0.131000
     27 H30          7.8560    -1.9650     0.5780 ha         1 FTA       0.134000
     28 H29          5.6510    -2.5510     1.5500 ha         1 FTA       0.131000
     29 H27          3.7160    -1.1070     1.2200 ha         1 FTA       0.134000
     30 H6           1.8470     2.9580     0.3170 ha         1 FTA       0.142500
     31 H4          -0.5630     2.5780     0.3560 ha         1 FTA       0.140000
     32 H5           2.4650    -1.1600    -0.7210 ha         1 FTA       0.142500
     33 H3           0.0860    -1.5380    -0.6780 ha         1 FTA       0.140000
     34 H1          -2.3860     1.1510    -0.1400 hn         1 FTA       0.480800
     35 H17         -1.8230    -1.7160     0.2270 h4         1 FTA       0.153000
     36 H19         -7.4530     1.4120    -0.2140 hn         1 FTA       0.356700
@<TRIPOS>BOND
     1     1     2 1   
     2     1     8 1   
     3     1    24 1   
     4     2     3 ar  
     5     2     7 ar  
     6     3     4 ar  
     7     3    25 1   
     8     4     5 ar  
     9     4    26 1   
    10     5     6 ar  
    11     5    27 1   
    12     6     7 ar  
    13     6    28 1   
    14     7    29 1   
    15     8     9 ar  
    16     8    11 ar  
    17     9    10 ar  
    18     9    30 1   
    19    10    13 ar  
    20    10    31 1   
    21    11    12 ar  
    22    11    32 1   
    23    12    13 ar  
    24    12    33 1   
    25    13    14 1   
    26    14    15 1   
    27    14    34 1   
    28    15    16 2   
    29    15    35 1   
    30    16    17 1   
    31    16    19 1   
    32    17    18 3   
    33    19    20 2   
    34    19    23 1   
    35    20    21 1   
    36    21    22 1   
    37    21    36 1   
    38    22    23 2   
@<TRIPOS>SUBSTRUCTURE
     1 FTA         1 TEMP              0 ****  ****    0 ROOT
