@<TRIPOS>MOLECULE
FTB
   60    63     1     0     0
SMALL
No Charge or Current Charge


@<TRIPOS>ATOM
      1 O33         -3.8990    -2.0620     6.5420 o          1 FTB      -0.575100
      2 C32         -3.9820    -0.8520     6.7190 c          1 FTB       0.609100
      3 C34         -5.1300    -0.2470     7.5230 c3         1 FTB      -0.183100
      4 N31         -3.0800     0.0840     6.2320 ns         1 FTB      -0.151000
      5 C28         -1.8960    -0.0380     5.4520 ca         1 FTB      -0.009000
      6 C29         -1.3930    -1.2700     4.9780 ca         1 FTB      -0.151000
      7 C30         -0.2150    -1.3110     4.2120 ca         1 FTB      -0.066000
      8 C27         -1.1970     1.1430     5.1410 ca         1 FTB      -0.151000
      9 C26         -0.0200     1.1030     4.3750 ca         1 FTB      -0.066000
     10 C25          0.4780    -0.1260     3.9070 ca         1 FTB      -0.123300
     11 C24          1.7480    -0.1710     3.0600 c3         1 FTB      -0.056400
     12 C1           1.4980    -0.0750     1.5780 cc         1 FTB       0.464800
     13 N2           2.4370    -0.1340     0.6470 nd         1 FTB      -0.706000
     14 C3           1.7860    -0.0040    -0.5600 cd         1 FTB       0.442900
     15 N6           2.3360     0.0060    -1.8150 n          1 FTB      -0.357300
     16 C12          3.8020    -0.1390    -1.9910 c3         1 FTB       0.115000
     17 C13          4.5540     1.2020    -1.8570 c3         1 FTB      -0.099400
     18 C14          6.0820     1.0560    -2.0280 c3         1 FTB      -0.071400
     19 C15          6.8340     2.3950    -1.8950 c3         1 FTB      -0.088100
     20 C4           0.4520     0.1320    -0.3680 cc         1 FTB      -0.351600
     21 N5           0.2640     0.0910     1.0030 na         1 FTB      -0.244500
     22 C9          -0.4810     0.2830    -1.4790 c          1 FTB       0.633600
     23 O10         -1.6820     0.4250    -1.3030 o          1 FTB      -0.536000
     24 N8           0.1190     0.2560    -2.7430 n          1 FTB      -0.374400
     25 C7           1.5090     0.1480    -2.9450 c          1 FTB       0.631000
     26 O11          1.9930     0.1880    -4.0670 o          1 FTB      -0.549000
     27 C16         -0.7780     0.3600    -3.9280 c3         1 FTB       0.153300
     28 C17         -1.6390    -0.8810    -4.1640 ca         1 FTB      -0.142300
     29 C18         -3.0280    -0.8280    -3.9250 ca         1 FTB      -0.057000
     30 C19         -3.8320    -1.9610    -4.1390 ca         1 FTB      -0.131000
     31 C20         -3.2590    -3.1590    -4.5960 ca         1 FTB      -0.079000
     32 C21         -1.8770    -3.2200    -4.8410 ca         1 FTB      -0.157000
     33 C22         -1.0730    -2.0880    -4.6270 ca         1 FTB       0.185000
     34 F            0.2520    -2.1740    -4.8740 f          1 FTB      -0.175000
     35 H341        -5.8290    -1.0030     7.8970 hc         1 FTB       0.064700
     36 H342        -4.7140     0.3590     8.3360 hc         1 FTB       0.064700
     37 H343        -5.6370     0.5060     6.9080 hc         1 FTB       0.064700
     38 H31         -3.3060     1.0390     6.4780 hn         1 FTB       0.148000
     39 H29         -1.8970    -2.2070     5.1900 ha         1 FTB       0.130000
     40 H30          0.1560    -2.2690     3.8530 ha         1 FTB       0.117500
     41 H27         -1.5680     2.1030     5.4950 ha         1 FTB       0.130000
     42 H26          0.5020     2.0300     4.1450 ha         1 FTB       0.117500
     43 H241         2.2970    -1.0980     3.2640 hc         1 FTB       0.069700
     44 H242         2.4220     0.6410     3.3550 hc         1 FTB       0.069700
     45 H121         4.0260    -0.5870    -2.9680 h1         1 FTB       0.072700
     46 H122         4.1830    -0.8380    -1.2350 h1         1 FTB       0.072700
     47 H131         4.3410     1.6380    -0.8740 hc         1 FTB       0.051700
     48 H132         4.1710     1.9030    -2.6090 hc         1 FTB       0.051700
     49 H141         6.2980     0.6220    -3.0130 hc         1 FTB       0.039700
     50 H142         6.4670     0.3550    -1.2770 hc         1 FTB       0.039700
     51 H151         7.9120     2.2420    -2.0230 hc         1 FTB       0.032700
     52 H152         6.4950     3.1070    -2.6570 hc         1 FTB       0.032700
     53 H153         6.6650     2.8380    -0.9060 hc         1 FTB       0.032700
     54 HN5         -0.6100     0.1640     1.5120 hn         1 FTB       0.373000
     55 H161        -1.4310     1.2320    -3.7900 h1         1 FTB       0.079200
     56 H162        -0.2060     0.5640    -4.8420 h1         1 FTB       0.079200
     57 H18         -3.4880     0.0920    -3.5680 ha         1 FTB       0.120000
     58 H19         -4.9020    -1.9100    -3.9490 ha         1 FTB       0.118000
     59 H20         -3.8820    -4.0350    -4.7610 ha         1 FTB       0.115000
     60 H21         -1.4260    -4.1430    -5.1970 ha         1 FTB       0.131000
@<TRIPOS>BOND
     1     1     2 2   
     2     2     3 1   
     3     2     4 1   
     4     3    35 1   
     5     3    36 1   
     6     3    37 1   
     7     4     5 1   
     8     4    38 1   
     9     5     6 ar  
    10     5     8 ar  
    11     6     7 ar  
    12     6    39 1   
    13     7    10 ar  
    14     7    40 1   
    15     8     9 ar  
    16     8    41 1   
    17     9    10 ar  
    18     9    42 1   
    19    10    11 1   
    20    11    12 1   
    21    11    43 1   
    22    11    44 1   
    23    12    13 2   
    24    12    21 1   
    25    13    14 1   
    26    14    15 1   
    27    14    20 2   
    28    15    16 1   
    29    15    25 1   
    30    16    17 1   
    31    16    45 1   
    32    16    46 1   
    33    17    18 1   
    34    17    47 1   
    35    17    48 1   
    36    18    19 1   
    37    18    49 1   
    38    18    50 1   
    39    19    51 1   
    40    19    52 1   
    41    19    53 1   
    42    20    21 1   
    43    20    22 1   
    44    21    54 1   
    45    22    23 2   
    46    22    24 1   
    47    24    25 1   
    48    24    27 1   
    49    25    26 2   
    50    27    28 1   
    51    27    55 1   
    52    27    56 1   
    53    28    29 ar  
    54    28    33 ar  
    55    29    30 ar  
    56    29    57 1   
    57    30    31 ar  
    58    30    58 1   
    59    31    32 ar  
    60    31    59 1   
    61    32    33 ar  
    62    32    60 1   
    63    33    34 1   
@<TRIPOS>SUBSTRUCTURE
     1 FTB         1 TEMP              0 ****  ****    0 ROOT
