@<TRIPOS>MOLECULE
FTB
   60    63     1     0     0
SMALL
abcg2


@<TRIPOS>ATOM
      1 O33         -0.4440    -2.5310     6.7410 o          1 FTB      -0.575100
      2 C32         -1.6150    -2.1990     6.7120 c          1 FTB       0.609100
      3 C34         -2.6710    -2.8740     7.5520 c3         1 FTB      -0.183100
      4 N31         -2.0950    -1.1790     5.9520 ns         1 FTB      -0.151000
      5 C28         -1.4120    -0.3020     5.1040 ca         1 FTB      -0.009000
      6 C29         -0.0570    -0.4060     4.7800 ca         1 FTB      -0.151000
      7 C30          0.5170     0.5170     3.9190 ca         1 FTB      -0.066000
      8 C27         -2.1550     0.7390     4.5450 ca         1 FTB      -0.151000
      9 C26         -1.5660     1.6510     3.6870 ca         1 FTB      -0.066000
     10 C25         -0.2170     1.5570     3.3620 ca         1 FTB      -0.123300
     11 C24          0.4250     2.5330     2.4050 c3         1 FTB      -0.056400
     12 C1           0.5430     1.9420     1.0430 cc         1 FTB       0.464800
     13 N2           1.4700     1.0660     0.6840 nd         1 FTB      -0.706000
     14 C3           1.1660     0.7520    -0.5870 cd         1 FTB       0.442900
     15 N6           1.8450    -0.1150    -1.3930 n          1 FTB      -0.357300
     16 C12          3.0670    -0.7510    -0.9090 c3         1 FTB       0.115000
     17 C13          4.3060     0.0930    -1.1650 c3         1 FTB      -0.099400
     18 C14          5.5540    -0.5360    -0.5600 c3         1 FTB      -0.071400
     19 C15          6.8050     0.2940    -0.8150 c3         1 FTB      -0.088100
     20 C4           0.0600     1.4300    -1.0230 cc         1 FTB      -0.351600
     21 N5          -0.3220     2.1940     0.0520 na         1 FTB      -0.244500
     22 C9          -0.4510     1.3010    -2.3400 c          1 FTB       0.633600
     23 O10         -1.4060     1.8910    -2.8120 o          1 FTB      -0.536000
     24 N8           0.2850     0.3780    -3.0940 n          1 FTB      -0.374400
     25 C7           1.4420    -0.2940    -2.6920 c          1 FTB       0.631000
     26 O11          2.0640    -1.0060    -3.4550 o          1 FTB      -0.549000
     27 C16         -0.2120     0.1290    -4.4450 c3         1 FTB       0.153300
     28 C17         -1.5460    -0.5680    -4.4620 ca         1 FTB      -0.142300
     29 C18         -2.6350    -0.0170    -5.1280 ca         1 FTB      -0.057000
     30 C19         -3.8570    -0.6700    -5.1820 ca         1 FTB      -0.131000
     31 C20         -4.0130    -1.8950    -4.5470 ca         1 FTB      -0.079000
     32 C21         -2.9450    -2.4680    -3.8710 ca         1 FTB      -0.157000
     33 C22         -1.7380    -1.7970    -3.8490 ca         1 FTB       0.185000
     34 F           -0.7040    -2.3650    -3.2030 f          1 FTB      -0.175000
     35 H341        -2.3390    -3.8690     7.8360 hc         1 FTB       0.064700
     36 H342        -2.8360    -2.2980     8.4640 hc         1 FTB       0.064700
     37 H343        -3.6260    -2.9520     7.0350 hc         1 FTB       0.064700
     38 H31         -3.0830    -0.9950     6.0370 hn         1 FTB       0.148000
     39 H29          0.5530    -1.1940     5.1890 ha         1 FTB       0.130000
     40 H30          1.5680     0.4150     3.6760 ha         1 FTB       0.117500
     41 H27         -3.2060     0.8410     4.7880 ha         1 FTB       0.130000
     42 H26         -2.1700     2.4490     3.2710 ha         1 FTB       0.117500
     43 H241         1.4260     2.7960     2.7510 hc         1 FTB       0.069700
     44 H242        -0.1530     3.4560     2.3590 hc         1 FTB       0.069700
     45 H121         3.1560    -1.7290    -1.3790 h1         1 FTB       0.072700
     46 H122         2.9350    -0.9160     0.1600 h1         1 FTB       0.072700
     47 H131         4.1570     1.0910    -0.7430 hc         1 FTB       0.051700
     48 H132         4.4420     0.2240    -2.2430 hc         1 FTB       0.051700
     49 H141         5.6930    -1.5420    -0.9670 hc         1 FTB       0.039700
     50 H142         5.4110    -0.6590     0.5170 hc         1 FTB       0.039700
     51 H151         7.6830    -0.1600    -0.3560 hc         1 FTB       0.032700
     52 H152         7.0030     0.3910    -1.8840 hc         1 FTB       0.032700
     53 H153         6.7000     1.3000    -0.4060 hc         1 FTB       0.032700
     54 HN5         -1.1070     2.8260     0.0870 hn         1 FTB       0.373000
     55 H161        -0.2950     1.0770    -4.9760 h1         1 FTB       0.079200
     56 H162         0.5340    -0.4610    -4.9680 h1         1 FTB       0.079200
     57 H18         -2.5160     0.9450    -5.6120 ha         1 FTB       0.120000
     58 H19         -4.6870    -0.2210    -5.7100 ha         1 FTB       0.118000
     59 H20         -4.9650    -2.4090    -4.5740 ha         1 FTB       0.115000
     60 H21         -3.0440    -3.4240    -3.3720 ha         1 FTB       0.131000
@<TRIPOS>BOND
     1     1     2 2   
     2     2     3 1   
     3     2     4 1   
     4     3    35 1   
     5     3    36 1   
     6     3    37 1   
     7     4     5 1   
     8     4    38 1   
     9     5     6 ar  
    10     5     8 ar  
    11     6     7 ar  
    12     6    39 1   
    13     7    10 ar  
    14     7    40 1   
    15     8     9 ar  
    16     8    41 1   
    17     9    10 ar  
    18     9    42 1   
    19    10    11 1   
    20    11    12 1   
    21    11    43 1   
    22    11    44 1   
    23    12    13 2   
    24    12    21 1   
    25    13    14 1   
    26    14    15 1   
    27    14    20 2   
    28    15    16 1   
    29    15    25 1   
    30    16    17 1   
    31    16    45 1   
    32    16    46 1   
    33    17    18 1   
    34    17    47 1   
    35    17    48 1   
    36    18    19 1   
    37    18    49 1   
    38    18    50 1   
    39    19    51 1   
    40    19    52 1   
    41    19    53 1   
    42    20    21 1   
    43    20    22 1   
    44    21    54 1   
    45    22    23 2   
    46    22    24 1   
    47    24    25 1   
    48    24    27 1   
    49    25    26 2   
    50    27    28 1   
    51    27    55 1   
    52    27    56 1   
    53    28    29 ar  
    54    28    33 ar  
    55    29    30 ar  
    56    29    57 1   
    57    30    31 ar  
    58    30    58 1   
    59    31    32 ar  
    60    31    59 1   
    61    32    33 ar  
    62    32    60 1   
    63    33    34 1   
@<TRIPOS>SUBSTRUCTURE
     1 FTB         1 TEMP              0 ****  ****    0 ROOT
