@<TRIPOS>MOLECULE
FTC
   39    40     1     0     0
SMALL
abcg2


@<TRIPOS>ATOM
      1 C1          -0.5700    -0.3630    -3.9100 ca         1 FTC       0.494900
      2 N2          -0.0870     0.7860    -4.3510 nb         1 FTC      -0.649000
      3 C3           0.2590     0.8850    -5.6230 ca         1 FTC       0.384900
      4 C4           0.1040    -0.1590    -6.5210 ca         1 FTC       0.037000
      5 C5          -0.4280    -1.3580    -6.0750 ca         1 FTC      -0.046000
      6 C6          -0.7620    -1.4670    -4.7390 ca         1 FTC      -0.189000
      7 CL7          0.5590     0.0470    -8.1730 cl         1 FTC      -0.180000
      8 N8          -0.9680    -0.4490    -2.5770 ns         1 FTC      -0.469400
      9 C9          -0.3030     0.0270    -1.4840 cs         1 FTC       0.475400
     10 S9           1.2800     0.5600    -1.5100 s          1 FTC      -0.589400
     11 N10         -1.0220    -0.0160    -0.3610 ns         1 FTC      -0.450900
     12 C11         -0.5170     0.3670     0.9390 c3         1 FTC       0.111000
     13 C12         -1.5950     0.1430     1.9960 c3         1 FTC      -0.143700
     14 C13         -1.1190     0.6000     3.3440 ca         1 FTC       0.342300
     15 N14         -1.4450     1.8340     3.7350 nb         1 FTC      -0.676000
     16 C15         -1.0130     2.2560     4.9110 ca         1 FTC       0.366900
     17 C16         -0.2370     1.4990     5.7780 ca         1 FTC      -0.239000
     18 C17          0.1190     0.2120     5.3910 ca         1 FTC       0.154100
     19 C18         -0.3460    -0.2140     4.1450 ca         1 FTC       0.084000
     20 O17          0.8530    -0.6470     6.0880 os         1 FTC      -0.324100
     21 CA           1.3270    -0.2510     7.3770 c3         1 FTC       0.164600
     22 CB           2.0990    -1.4060     7.9650 c3         1 FTC      -0.096100
     23 F18         -0.0190    -1.4470     3.7320 f          1 FTC      -0.160000
     24 H3           0.6610     1.8370    -5.9520 h4         1 FTC       0.041100
     25 H5          -0.5660    -2.1940    -6.7470 ha         1 FTC       0.135000
     26 H6          -1.1590    -2.3940    -4.3460 ha         1 FTC       0.127000
     27 HN8         -1.7600    -1.0520    -2.4030 hn         1 FTC       0.311500
     28 H10         -1.9990    -0.2680    -0.4210 hn         1 FTC       0.303500
     29 H111        -0.2150     1.4170     0.9270 h1         1 FTC       0.078700
     30 H112         0.3760    -0.2170     1.1720 h1         1 FTC       0.078700
     31 H121        -1.8810    -0.9100     2.0170 hc         1 FTC       0.066200
     32 H122        -2.4860     0.7200     1.7390 hc         1 FTC       0.066200
     33 H15         -1.2960     3.2610     5.1990 h4         1 FTC       0.025100
     34 H16          0.0720     1.9220     6.7230 ha         1 FTC       0.131000
     35 HA1          0.4790     0.0120     8.0170 h1         1 FTC       0.039200
     36 HA2          1.9640     0.6320     7.2820 h1         1 FTC       0.039200
     37 HB1          2.4610    -1.1250     8.9540 hc         1 FTC       0.052033
     38 HB2          1.4740    -2.2910     8.0740 hc         1 FTC       0.052033
     39 HB3          2.9650    -1.6620     7.3540 hc         1 FTC       0.052033
@<TRIPOS>BOND
     1     1     2 ar  
     2     1     6 ar  
     3     1     8 1   
     4     2     3 ar  
     5     3     4 ar  
     6     3    24 1   
     7     4     5 ar  
     8     4     7 1   
     9     5     6 ar  
    10     5    25 1   
    11     6    26 1   
    12     8     9 1   
    13     8    27 1   
    14     9    10 2   
    15     9    11 1   
    16    11    12 1   
    17    11    28 1   
    18    12    13 1   
    19    12    29 1   
    20    12    30 1   
    21    13    14 1   
    22    13    31 1   
    23    13    32 1   
    24    14    15 ar  
    25    14    19 ar  
    26    15    16 ar  
    27    16    17 ar  
    28    16    33 1   
    29    17    18 ar  
    30    17    34 1   
    31    18    19 ar  
    32    18    20 1   
    33    19    23 1   
    34    20    21 1   
    35    21    22 1   
    36    21    35 1   
    37    21    36 1   
    38    22    37 1   
    39    22    38 1   
    40    22    39 1   
@<TRIPOS>SUBSTRUCTURE
     1 FTC         1 TEMP              0 ****  ****    0 ROOT
