@<TRIPOS>MOLECULE
FTC
   39    40     1     0     0
SMALL
No Charge or Current Charge


@<TRIPOS>ATOM
      1 C1          -0.5250    -0.3500    -3.9870 ca         1 FTC       0.494900
      2 N2          -0.1270     0.8180    -4.5230 nb         1 FTC      -0.649000
      3 C3           0.1550     0.8280    -5.8500 ca         1 FTC       0.384900
      4 C4           0.0240    -0.3090    -6.6770 ca         1 FTC       0.037000
      5 C5          -0.4270    -1.5120    -6.1080 ca         1 FTC      -0.046000
      6 C6          -0.7180    -1.5240    -4.7330 ca         1 FTC      -0.189000
      7 Cl7          0.4030    -0.2270    -8.3960 cl         1 FTC      -0.180000
      8 N8          -0.8670    -0.2810    -2.6370 ns         1 FTC      -0.469400
      9 C9          -0.1820     0.1770    -1.5550 cs         1 FTC       0.475400
     10 S9           1.4120     0.6800    -1.5730 s          1 FTC      -0.589400
     11 N10         -0.9320     0.1050    -0.4170 ns         1 FTC      -0.450900
     12 C11         -0.4830     0.4830     0.9230 c3         1 FTC       0.111000
     13 C12         -1.5800     0.2500     1.9760 c3         1 FTC      -0.143700
     14 C13         -1.1160     0.6320     3.3750 ca         1 FTC       0.342300
     15 N14         -1.5060     1.8540     3.8090 nb         1 FTC      -0.676000
     16 C15         -1.1150     2.2470     5.0420 ca         1 FTC       0.366900
     17 C16         -0.3250     1.4480     5.8830 ca         1 FTC      -0.239000
     18 C17          0.0860     0.1770     5.4350 ca         1 FTC       0.154100
     19 C18         -0.3180    -0.2380     4.1530 ca         1 FTC       0.084000
     20 O17          0.8660    -0.6670     6.2040 os         1 FTC      -0.324100
     21 CA           1.3150    -0.3060     7.5210 c3         1 FTC       0.164600
     22 CB           2.1490    -1.4780     8.0620 c3         1 FTC      -0.096100
     23 F18          0.0570    -1.4510     3.6750 f          1 FTC      -0.160000
     24 H3           0.4900     1.7770    -6.2660 h4         1 FTC       0.041100
     25 H5          -0.5520    -2.4050    -6.7170 ha         1 FTC       0.135000
     26 H6          -1.0790    -2.4270    -4.2500 ha         1 FTC       0.127000
     27 HN8         -1.7910    -0.6400    -2.4490 hn         1 FTC       0.311500
     28 H10         -1.8850    -0.2260    -0.5100 hn         1 FTC       0.303500
     29 H111        -0.1980     1.5450     0.9170 h1         1 FTC       0.078700
     30 H112         0.4070    -0.1080     1.1790 h1         1 FTC       0.078700
     31 H121        -1.8800    -0.8050     1.9590 hc         1 FTC       0.066200
     32 H122        -2.4710     0.8270     1.6990 hc         1 FTC       0.066200
     33 H15         -1.4450     3.2340     5.3650 h4         1 FTC       0.025100
     34 H16         -0.0510     1.8320     6.8600 ha         1 FTC       0.131000
     35 HA1          0.4610    -0.1260     8.1880 h1         1 FTC       0.039200
     36 HA2          1.9350     0.5990     7.4870 h1         1 FTC       0.039200
     37 HB1          2.5150    -1.2490     9.0700 hc         1 FTC       0.052033
     38 HB2          1.5430    -2.3910     8.1150 hc         1 FTC       0.052033
     39 HB3          3.0140    -1.6670     7.4160 hc         1 FTC       0.052033
@<TRIPOS>BOND
     1     1     2 ar  
     2     1     6 ar  
     3     1     8 1   
     4     2     3 ar  
     5     3     4 ar  
     6     3    24 1   
     7     4     5 ar  
     8     4     7 1   
     9     5     6 ar  
    10     5    25 1   
    11     6    26 1   
    12     8     9 1   
    13     8    27 1   
    14     9    10 2   
    15     9    11 1   
    16    11    12 1   
    17    11    28 1   
    18    12    13 1   
    19    12    29 1   
    20    12    30 1   
    21    13    14 1   
    22    13    31 1   
    23    13    32 1   
    24    14    15 ar  
    25    14    19 ar  
    26    15    16 ar  
    27    16    17 ar  
    28    16    33 1   
    29    17    18 ar  
    30    17    34 1   
    31    18    19 ar  
    32    18    20 1   
    33    19    23 1   
    34    20    21 1   
    35    21    22 1   
    36    21    35 1   
    37    21    36 1   
    38    22    37 1   
    39    22    38 1   
    40    22    39 1   
@<TRIPOS>SUBSTRUCTURE
     1 FTC         1 TEMP              0 ****  ****    0 ROOT
