@<TRIPOS>MOLECULE
FTE
   14    14     1     0     0
SMALL
bcc


@<TRIPOS>ATOM
      1 C1           1.3950    -1.0760    -0.0100 ca         1 FTE      -0.137500
      2 C2           0.4000    -0.1000    -0.0040 ca         1 FTE       0.277400
      3 C3           0.7290     1.2550     0.0100 ca         1 FTE      -0.137500
      4 C4           2.0640     1.6260     0.0170 ca         1 FTE      -0.109000
      5 C5           3.0630     0.6610     0.0100 ca         1 FTE      -0.129000
      6 C6           2.7240    -0.6860    -0.0040 ca         1 FTE      -0.109000
      7 N13         -0.9150    -0.4740    -0.0110 ne         1 FTE      -0.606800
      8 C15         -2.0440    -0.7820    -0.0150 c1         1 FTE       0.654300
      9 S17         -3.5730    -1.2010    -0.0210 s          1 FTE      -0.418900
     10 H1           1.1250    -2.1240    -0.0200 ha         1 FTE       0.148000
     11 H3          -0.0540     2.0000     0.0140 ha         1 FTE       0.148000
     12 H4           2.3210     2.6770     0.0270 ha         1 FTE       0.140000
     13 H5           4.1040     0.9570     0.0150 ha         1 FTE       0.139000
     14 H6           3.4980    -1.4410    -0.0090 ha         1 FTE       0.140000
@<TRIPOS>BOND
     1     1     2 ar  
     2     1     6 ar  
     3     1    10 1   
     4     2     3 ar  
     5     2     7 1   
     6     3     4 ar  
     7     3    11 1   
     8     4     5 ar  
     9     4    12 1   
    10     5     6 ar  
    11     5    13 1   
    12     6    14 1   
    13     7     8 2   
    14     8     9 2   
@<TRIPOS>SUBSTRUCTURE
     1 FTE         1 TEMP              0 ****  ****    0 ROOT
