@<TRIPOS>MOLECULE
FTE
   14    14     1     0     0
SMALL
No Charge or Current Charge


@<TRIPOS>ATOM
      1 C1           1.3840    -1.0810    -0.1240 ca         1 FTE      -0.119500
      2 C2           0.3790    -0.1060    -0.2440 ca         1 FTE       0.277400
      3 C3           0.7190     1.2560    -0.1640 ca         1 FTE      -0.119500
      4 C4           2.0570     1.6430     0.0360 ca         1 FTE      -0.091000
      5 C5           3.0590     0.6640     0.1570 ca         1 FTE      -0.111000
      6 C6           2.7230    -0.6990     0.0770 ca         1 FTE      -0.091000
      7 N13         -0.9560    -0.4890    -0.4430 ne         1 FTE      -0.606800
      8 C15         -2.0500    -0.7930    -0.0390 c1         1 FTE       0.431400
      9 S17         -3.4530    -1.1810     0.6060 s          1 FTE      -0.196000
     10 H1           1.1230    -2.1340    -0.1860 ha         1 FTE       0.130000
     11 H3          -0.0560     2.0120    -0.2580 ha         1 FTE       0.130000
     12 H4           2.3160     2.6980     0.0980 ha         1 FTE       0.122000
     13 H5           4.0940     0.9610     0.3120 ha         1 FTE       0.121000
     14 H6           3.4980    -1.4580     0.1700 ha         1 FTE       0.122000
@<TRIPOS>BOND
     1     1     2 ar  
     2     1     6 ar  
     3     1    10 1   
     4     2     3 ar  
     5     2     7 1   
     6     3     4 ar  
     7     3    11 1   
     8     4     5 ar  
     9     4    12 1   
    10     5     6 ar  
    11     5    13 1   
    12     6    14 1   
    13     7     8 2   
    14     8     9 2   
@<TRIPOS>SUBSTRUCTURE
     1 FTE         1 TEMP              0 ****  ****    0 ROOT
