@<TRIPOS>MOLECULE
FTG
   84    88     1     0     0
SMALL
No Charge or Current Charge


@<TRIPOS>ATOM
      1 O3           2.7210     1.2140    -2.2630 o          1 FTG      -0.602100
      2 C4          -1.9980     1.1720     1.1510 c3         1 FTG      -0.056700
      3 O4          -2.4900    -1.5440     2.4230 os         1 FTG      -0.447000
      4 C6           0.1860     1.5600    -0.2760 c3         1 FTG      -0.068400
      5 N1           0.3060     3.0270    -2.3150 n8         1 FTG      -0.983200
      6 C7           1.0380     2.5740    -1.0850 c3         1 FTG       0.092500
      7 C8           2.4750     1.9920    -1.3490 c          1 FTG       0.550100
      8 C9           4.8680     2.0520    -0.5500 c3         1 FTG       0.103000
      9 C10          5.0910     0.6750     0.1070 c3         1 FTG      -0.040100
     10 C11          6.5640     0.2830     0.1200 ca         1 FTG      -0.123300
     11 C12          7.1310    -0.3790    -0.9860 ca         1 FTG      -0.064000
     12 N3          -0.8230    -2.3760     0.9320 na         1 FTG      -0.292300
     13 C13          8.4920    -0.7320    -0.9760 ca         1 FTG      -0.173000
     14 C14          9.2910    -0.4250     0.1350 ca         1 FTG       0.142100
     15 N4          -2.8340    -2.3360    -0.5310 nb         1 FTG      -0.217000
     16 N            3.4630     2.4700    -0.5110 ns         1 FTG      -0.508900
     17 C17          7.3710     0.5910     1.2330 ca         1 FTG      -0.064000
     18 C16          8.7320     0.2360     1.2400 ca         1 FTG      -0.173000
     19 O2          10.6090    -0.7720     0.1340 oh         1 FTG      -0.532100
     20 C18         -3.3690     1.8110     1.5240 c3         1 FTG       0.164800
     21 C19         -5.4740     2.7550     0.5900 c3         1 FTG       0.208100
     22 C20         -6.2200     2.9950    -0.7160 ca         1 FTG      -0.092300
     23 C25         -7.1150     2.0260    -1.2130 ca         1 FTG      -0.096500
     24 C24         -7.8050     2.2490    -2.4180 ca         1 FTG      -0.115000
     25 C23         -7.6040     3.4410    -3.1340 ca         1 FTG      -0.108000
     26 C22         -6.7130     4.4110    -2.6440 ca         1 FTG      -0.115000
     27 C21         -6.0220     4.1880    -1.4400 ca         1 FTG      -0.096500
     28 C3          -1.2680     0.6070     2.4130 c3         1 FTG      -0.094400
     29 C2          -2.0570    -0.4470     3.2530 c5         1 FTG       0.165300
     30 C1          -1.2290    -1.1650     4.3620 c5         1 FTG       0.109300
     31 O1          -2.0450    -1.8400     5.3240 oh         1 FTG      -0.704000
     32 C26         -1.3990    -2.4870     2.2820 c5         1 FTG       0.319300
     33 C           -0.4470    -2.2280     3.5250 c5         1 FTG       0.081300
     34 O           -0.1960    -3.4030     4.3300 oh         1 FTG      -0.692000
     35 C31          0.5410    -2.3450     0.6100 cc         1 FTG       0.402700
     36 N7           0.7360    -2.2480    -0.7170 nd         1 FTG      -0.546100
     37 C30         -0.5620    -2.2250    -1.2310 ca         1 FTG      -0.102600
     38 C27         -1.5150    -2.3160    -0.2490 ca         1 FTG       0.141500
     39 C29         -0.9930    -2.1360    -2.5710 ca         1 FTG       0.449900
     40 N6          -0.1270    -2.0470    -3.6150 nv         1 FTG      -1.060900
     41 N5          -2.2970    -2.1500    -2.8850 nb         1 FTG      -0.303000
     42 C28         -3.1580    -2.2490    -1.8430 ca         1 FTG       0.182900
     43 H1          -2.2100     0.3260     0.4880 hc         1 FTG       0.066700
     44 H2          -1.6900     2.6100    -0.4590 hc         1 FTG       0.061200
     45 H3          -0.8180     3.0020     1.0090 hc         1 FTG       0.061200
     46 H4           0.8220     1.1580     0.5200 hc         1 FTG       0.043200
     47 H5          -0.0850     0.7140    -0.9190 hc         1 FTG       0.043200
     48 H6           0.8790     3.7150    -2.8180 hn         1 FTG       0.410000
     49 H7           0.2610     2.2390    -2.9730 hn         1 FTG       0.410000
     50 H9           1.1790     3.4610    -0.4510 h1         1 FTG       0.057700
     51 H10         -4.3120     1.2950    -0.2110 hn         1 FTG       0.417000
     52 H12          5.4700     2.8050    -0.0240 h1         1 FTG       0.058200
     53 H13          5.2080     2.0220    -1.5940 h1         1 FTG       0.058200
     54 H14          4.6980     0.7000     1.1300 hc         1 FTG       0.046200
     55 H15          4.5050    -0.0820    -0.4290 hc         1 FTG       0.046200
     56 H16          6.5190    -0.6190    -1.8540 ha         1 FTG       0.112500
     57 H17          8.9260    -1.2430    -1.8320 ha         1 FTG       0.122000
     58 H18          3.1800     3.1330     0.2010 hn         1 FTG       0.309500
     59 H19          6.9450     1.1060     2.0920 ha         1 FTG       0.112500
     60 H20          9.3440     0.4790     2.1060 ha         1 FTG       0.122000
     61 H21         11.0060    -0.4840     0.9840 ho         1 FTG       0.465000
     62 H22         -3.9480     1.1040     2.1310 h1         1 FTG       0.029200
     63 H23         -3.1920     2.7050     2.1380 h1         1 FTG       0.029200
     64 H24         -6.0760     2.0940     1.2290 h1         1 FTG       0.034700
     65 H25         -5.3610     3.7100     1.1220 h1         1 FTG       0.034700
     66 H26         -7.2760     1.1000    -0.6650 ha         1 FTG       0.118000
     67 H27         -8.4950     1.4970    -2.7960 ha         1 FTG       0.111500
     68 H28         -8.1380     3.6130    -4.0660 ha         1 FTG       0.111000
     69 H29         -6.5560     5.3340    -3.1980 ha         1 FTG       0.111500
     70 H30         -5.3300     4.9410    -1.0680 ha         1 FTG       0.118000
     71 H31         -0.3110     0.1740     2.1100 hc         1 FTG       0.042200
     72 H32         -1.0110     1.4490     3.0680 hc         1 FTG       0.042200
     73 H33         -2.9370     0.0390     3.6930 h1         1 FTG       0.095700
     74 H34         -0.5440    -0.4680     4.8650 h1         1 FTG       0.055700
     75 H35         -1.6170    -2.7350     5.3580 ho         1 FTG       0.523000
     76 H36         -1.8070    -3.5050     2.3360 h2         1 FTG       0.124700
     77 H37          0.5050    -1.7820     3.2080 h1         1 FTG       0.051700
     78 H38          0.5660    -3.8900     3.9310 ho         1 FTG       0.514000
     79 H39          1.3250    -2.4050     1.3550 h5         1 FTG       0.064800
     80 H40          0.8510    -2.2390    -3.4130 hn         1 FTG       0.506000
     81 H41         -0.4610    -2.2920    -4.5420 hn         1 FTG       0.506000
     82 H42         -4.2190    -2.2610    -2.0850 h5         1 FTG       0.046100
     83 C5          -1.0990     2.1700     0.3520 c3         1 FTG      -0.070400
     84 N2          -4.1570     2.1550     0.3250 n7         1 FTG      -0.864400
@<TRIPOS>BOND
     1     1     7 2   
     2     2    20 1   
     3     2    28 1   
     4     2    43 1   
     5     2    83 1   
     6     3    29 1   
     7     3    32 1   
     8     4     6 1   
     9     4    46 1   
    10     4    47 1   
    11     4    83 1   
    12     5     6 1   
    13     5    48 1   
    14     5    49 1   
    15     6     7 1   
    16     6    50 1   
    17     7    16 1   
    18     8     9 1   
    19     8    16 1   
    20     8    52 1   
    21     8    53 1   
    22     9    10 1   
    23     9    54 1   
    24     9    55 1   
    25    10    11 ar  
    26    10    17 ar  
    27    11    13 ar  
    28    11    56 1   
    29    12    32 1   
    30    12    35 1   
    31    12    38 1   
    32    13    14 ar  
    33    13    57 1   
    34    14    18 ar  
    35    14    19 1   
    36    15    38 ar  
    37    15    42 ar  
    38    16    58 1   
    39    17    18 ar  
    40    17    59 1   
    41    18    60 1   
    42    19    61 1   
    43    20    62 1   
    44    20    63 1   
    45    20    84 1   
    46    21    22 1   
    47    21    64 1   
    48    21    65 1   
    49    21    84 1   
    50    22    23 ar  
    51    22    27 ar  
    52    23    24 ar  
    53    23    66 1   
    54    24    25 ar  
    55    24    67 1   
    56    25    26 ar  
    57    25    68 1   
    58    26    27 ar  
    59    26    69 1   
    60    27    70 1   
    61    28    29 1   
    62    28    71 1   
    63    28    72 1   
    64    29    30 1   
    65    29    73 1   
    66    30    31 1   
    67    30    33 1   
    68    30    74 1   
    69    31    75 1   
    70    32    33 1   
    71    32    76 1   
    72    33    34 1   
    73    33    77 1   
    74    34    78 1   
    75    35    36 2   
    76    35    79 1   
    77    36    37 1   
    78    37    38 ar  
    79    37    39 ar  
    80    39    40 1   
    81    39    41 ar  
    82    40    80 1   
    83    40    81 1   
    84    41    42 ar  
    85    42    82 1   
    86    44    83 1   
    87    45    83 1   
    88    51    84 1   
@<TRIPOS>SUBSTRUCTURE
     1 FTG         1 TEMP              0 ****  ****    0 ROOT
