@<TRIPOS>MOLECULE
FTG
   84    88     1     0     0
SMALL
abcg2


@<TRIPOS>ATOM
      1 O3           2.2350     2.3110    -2.0740 o          1 FTG      -0.602100
      2 C4          -2.2450     1.3930     1.2130 c3         1 FTG      -0.056700
      3 O4          -2.5180    -1.5530     1.4340 os         1 FTG      -0.447000
      4 C6          -0.0370     2.0480     0.1030 c3         1 FTG      -0.068400
      5 N1           0.2920     4.1670    -1.0860 n8         1 FTG      -0.983200
      6 C7           0.9330     3.1830    -0.2420 c3         1 FTG       0.092500
      7 C8           2.1790     2.5610    -0.8770 c          1 FTG       0.550100
      8 C9           4.4010     1.6200    -0.4390 c3         1 FTG       0.103000
      9 C10          5.3710     1.5260     0.7340 c3         1 FTG      -0.040100
     10 C11          6.6530     0.8540     0.3290 ca         1 FTG      -0.123300
     11 C12          6.7710    -0.5340     0.3420 ca         1 FTG      -0.064000
     12 N3          -0.9620    -2.8280     0.2760 na         1 FTG      -0.292300
     13 C13          7.9350    -1.1680    -0.0630 ca         1 FTG      -0.173000
     14 C14          9.0220    -0.4120    -0.4960 ca         1 FTG       0.142100
     15 N4          -1.4910    -5.1300    -0.2820 nb         1 FTG      -0.217000
     16 N            3.1790     2.2790    -0.0300 ns         1 FTG      -0.508900
     17 C17          7.7480     1.5930    -0.1080 ca         1 FTG      -0.064000
     18 C16          8.9220     0.9770    -0.5160 ca         1 FTG      -0.173000
     19 O2          10.1370    -1.0690    -0.8790 oh         1 FTG      -0.532100
     20 C18         -3.6240     1.9580     1.5560 c3         1 FTG       0.164800
     21 C19         -5.5460     3.1430     0.7020 c3         1 FTG       0.208100
     22 C20         -6.1430     3.8280    -0.4990 ca         1 FTG      -0.092300
     23 C25         -7.4680     3.6080    -0.8610 ca         1 FTG      -0.096500
     24 C24         -8.0270     4.2610    -1.9540 ca         1 FTG      -0.115000
     25 C23         -7.2600     5.1410    -2.7050 ca         1 FTG      -0.108000
     26 C22         -5.9330     5.3620    -2.3550 ca         1 FTG      -0.115000
     27 C21         -5.3790     4.7090    -1.2640 ca         1 FTG      -0.096500
     28 C3          -1.7010     0.5500     2.3710 c3         1 FTG      -0.094400
     29 C2          -2.4330    -0.7600     2.6300 c5         1 FTG       0.165300
     30 C1          -1.7130    -1.6430     3.6420 c5         1 FTG       0.109300
     31 O1          -2.6490    -2.4930     4.2540 oh         1 FTG      -0.704000
     32 C26         -1.6840    -2.6700     1.5160 c5         1 FTG       0.319300
     33 C           -0.7800    -2.4350     2.7260 c5         1 FTG       0.081300
     34 O           -0.3440    -3.6590     3.2370 oh         1 FTG      -0.692000
     35 C31         -0.2030    -1.8880    -0.3680 cc         1 FTG       0.402700
     36 N7           0.3280    -2.3190    -1.4720 nd         1 FTG      -0.546100
     37 C30         -0.0990    -3.6180    -1.5700 ca         1 FTG      -0.102600
     38 C27         -0.9060    -3.9540    -0.4950 ca         1 FTG       0.141500
     39 C29          0.1270    -4.6300    -2.5220 ca         1 FTG       0.449900
     40 N6           0.8780    -4.4440    -3.6080 nv         1 FTG      -1.060900
     41 N5          -0.4540    -5.8190    -2.3210 nb         1 FTG      -0.303000
     42 C28         -1.2130    -5.9950    -1.2420 ca         1 FTG       0.182900
     43 H1          -2.3560     0.7420     0.3350 hc         1 FTG       0.066700
     44 H2          -1.8000     3.2530     0.2360 hc         1 FTG       0.061200
     45 H3          -0.9730     3.0410     1.7680 hc         1 FTG       0.061200
     46 H4           0.5100     1.3070     0.6940 hc         1 FTG       0.043200
     47 H5          -0.3390     1.5490    -0.8260 hc         1 FTG       0.043200
     48 H6           0.9200     4.9420    -1.2560 hn         1 FTG       0.410000
     49 H7           0.1020     3.7560    -1.9930 hn         1 FTG       0.410000
     50 H9           1.2210     3.6770     0.6930 h1         1 FTG       0.057700
     51 H10         -4.3400     1.8990    -0.3330 hn         1 FTG       0.417000
     52 H12          4.8670     2.1750    -1.2570 h1         1 FTG       0.058200
     53 H13          4.1830     0.6170    -0.8170 h1         1 FTG       0.058200
     54 H14          5.5790     2.5300     1.1130 hc         1 FTG       0.046200
     55 H15          4.9000     0.9680     1.5480 hc         1 FTG       0.046200
     56 H16          5.9360    -1.1370     0.6800 ha         1 FTG       0.112500
     57 H17          8.0060    -2.2480    -0.0400 ha         1 FTG       0.122000
     58 H18          3.0720     2.5190     0.9430 hn         1 FTG       0.309500
     59 H19          7.6910     2.6750    -0.1290 ha         1 FTG       0.112500
     60 H20          9.7610     1.5790    -0.8470 ha         1 FTG       0.122000
     61 H21         10.8170    -0.4420    -1.1480 ho         1 FTG       0.465000
     62 H22         -4.2620     1.1690     1.9820 h1         1 FTG       0.029200
     63 H23         -3.5100     2.7140     2.3410 h1         1 FTG       0.029200
     64 H24         -6.2580     2.3960     1.0870 h1         1 FTG       0.034700
     65 H25         -5.4210     3.8760     1.5070 h1         1 FTG       0.034700
     66 H26         -8.0720     2.9160    -0.2850 ha         1 FTG       0.118000
     67 H27         -9.0590     4.0760    -2.2200 ha         1 FTG       0.111500
     68 H28         -7.6920     5.6480    -3.5580 ha         1 FTG       0.111000
     69 H29         -5.3270     6.0460    -2.9360 ha         1 FTG       0.111500
     70 H30         -4.3420     4.8780    -1.0010 ha         1 FTG       0.118000
     71 H31         -0.6380     0.3430     2.2100 hc         1 FTG       0.042200
     72 H32         -1.7440     1.1420     3.2920 hc         1 FTG       0.042200
     73 H33         -3.4530    -0.5600     2.9670 h1         1 FTG       0.095700
     74 H34         -1.1600    -1.0470     4.3800 h1         1 FTG       0.055700
     75 H35         -2.1750    -3.2590     4.5970 ho         1 FTG       0.523000
     76 H36         -2.2600    -3.5930     1.6460 h2         1 FTG       0.124700
     77 H37          0.0650    -1.7970     2.4380 h1         1 FTG       0.051700
     78 H38          0.4280    -3.5080     3.7910 ho         1 FTG       0.514000
     79 H39         -0.0830    -0.8890     0.0230 h5         1 FTG       0.064800
     80 H40          1.3950    -3.5920    -3.7380 hn         1 FTG       0.506000
     81 H41          1.0830    -5.2180    -4.2160 hn         1 FTG       0.506000
     82 H42         -1.6570    -6.9790    -1.1410 h5         1 FTG       0.046100
     83 C5          -1.2760     2.5210     0.8510 c3         1 FTG      -0.070400
     84 N2          -4.2430     2.5860     0.4060 n7         1 FTG      -0.864400
@<TRIPOS>BOND
     1     1     7 2   
     2     2    20 1   
     3     2    28 1   
     4     2    43 1   
     5     2    83 1   
     6     3    29 1   
     7     3    32 1   
     8     4     6 1   
     9     4    46 1   
    10     4    47 1   
    11     4    83 1   
    12     5     6 1   
    13     5    48 1   
    14     5    49 1   
    15     6     7 1   
    16     6    50 1   
    17     7    16 1   
    18     8     9 1   
    19     8    16 1   
    20     8    52 1   
    21     8    53 1   
    22     9    10 1   
    23     9    54 1   
    24     9    55 1   
    25    10    11 ar  
    26    10    17 ar  
    27    11    13 ar  
    28    11    56 1   
    29    12    32 1   
    30    12    35 1   
    31    12    38 1   
    32    13    14 ar  
    33    13    57 1   
    34    14    18 ar  
    35    14    19 1   
    36    15    38 ar  
    37    15    42 ar  
    38    16    58 1   
    39    17    18 ar  
    40    17    59 1   
    41    18    60 1   
    42    19    61 1   
    43    20    62 1   
    44    20    63 1   
    45    20    84 1   
    46    21    22 1   
    47    21    64 1   
    48    21    65 1   
    49    21    84 1   
    50    22    23 ar  
    51    22    27 ar  
    52    23    24 ar  
    53    23    66 1   
    54    24    25 ar  
    55    24    67 1   
    56    25    26 ar  
    57    25    68 1   
    58    26    27 ar  
    59    26    69 1   
    60    27    70 1   
    61    28    29 1   
    62    28    71 1   
    63    28    72 1   
    64    29    30 1   
    65    29    73 1   
    66    30    31 1   
    67    30    33 1   
    68    30    74 1   
    69    31    75 1   
    70    32    33 1   
    71    32    76 1   
    72    33    34 1   
    73    33    77 1   
    74    34    78 1   
    75    35    36 2   
    76    35    79 1   
    77    36    37 1   
    78    37    38 ar  
    79    37    39 ar  
    80    39    40 1   
    81    39    41 ar  
    82    40    80 1   
    83    40    81 1   
    84    41    42 ar  
    85    42    82 1   
    86    44    83 1   
    87    45    83 1   
    88    51    84 1   
@<TRIPOS>SUBSTRUCTURE
     1 FTG         1 TEMP              0 ****  ****    0 ROOT
