@<TRIPOS>MOLECULE
FTH
   66    70     1     0     0
SMALL
No Charge or Current Charge


@<TRIPOS>ATOM
      1 C1           4.7860    -0.5310    -1.6970 c3         1 FTH       0.057900
      2 N2           4.1900    -0.1010    -2.9710 na         1 FTH      -0.169500
      3 C3           4.5940    -0.5070    -4.2270 cc         1 FTH       0.394400
      4 N4           3.8530     0.0560    -5.1710 nd         1 FTH      -0.670000
      5 C5           2.9390     0.8450    -4.5010 cd         1 FTH       0.254900
      6 C6           3.1300     0.7700    -3.1430 cc         1 FTH      -0.199300
      7 C7           2.3660     1.4690    -2.0420 c3         1 FTH       0.005900
      8 C8           1.2440     0.6000    -1.4180 c3         1 FTH       0.122500
      9 N9           0.2110     0.2770    -2.4580 n7         1 FTH      -0.867400
     10 C10         -0.7350    -0.7960    -2.1040 c3         1 FTH       0.214100
     11 C11         -1.7470    -0.9990    -3.2230 ca         1 FTH      -0.067300
     12 C12         -1.3790    -1.6920    -4.3930 ca         1 FTH      -0.103500
     13 C13         -2.3100    -1.8830    -5.4290 ca         1 FTH      -0.074000
     14 C14         -3.6200    -1.3810    -5.3040 ca         1 FTH      -0.020000
     15 C15         -4.5730    -1.5750    -6.3630 cg         1 FTH       0.325000
     16 N16         -5.3530    -1.7390    -7.2170 n1         1 FTH      -0.456000
     17 C17         -3.9900    -0.6870    -4.1360 ca         1 FTH      -0.074000
     18 C18         -3.0580    -0.4960    -3.1010 ca         1 FTH      -0.103500
     19 C19          0.6490     1.3120    -0.1430 c          1 FTH       0.564100
     20 O20         -0.3230     2.0560    -0.2450 o          1 FTH      -0.602100
     21 N21          1.2380     1.0820     1.1270 n          1 FTH      -0.408800
     22 C22          2.4050     0.1640     1.3150 c6         1 FTH       0.104000
     23 C23          2.9830     0.1340     2.7470 c6         1 FTH      -0.047200
     24 C24          1.8530    -0.0020     3.7590 ce         1 FTH      -0.011900
     25 C25          0.7510     0.7790     3.5920 cf         1 FTH      -0.014400
     26 C26          0.6510     1.6990     2.3620 c6         1 FTH       0.117200
     27 C27         -0.4880     0.7490     4.3910 ca         1 FTH      -0.072800
     28 C28         -0.7520     1.8230     5.2620 ca         1 FTH      -0.078000
     29 C29         -1.9120     1.8320     6.0530 ca         1 FTH      -0.110000
     30 C30         -2.8220     0.7670     5.9770 ca         1 FTH      -0.082000
     31 C31         -2.5780    -0.3080     5.1030 ca         1 FTH      -0.037000
     32 C32         -3.5040    -1.3670     5.0250 ca         1 FTH      -0.093000
     33 C33         -3.2790    -2.4400     4.1480 ca         1 FTH      -0.106000
     34 C34         -2.1300    -2.4560     3.3410 ca         1 FTH      -0.098000
     35 C35         -1.2020    -1.4040     3.4140 ca         1 FTH      -0.106000
     36 C36         -1.4110    -0.3230     4.3010 ca         1 FTH      -0.014000
     37 C37          1.9970    -0.9310     4.8410 cg         1 FTH       0.280700
     38 N38          2.1550    -1.6970     5.7070 n1         1 FTH      -0.443000
     39 HC11         5.0800     0.3490    -1.1110 h1         1 FTH       0.049367
     40 HC1A         4.0560    -1.1210    -1.1300 h1         1 FTH       0.049367
     41 HC1B         5.6740    -1.1460    -1.8890 h1         1 FTH       0.049367
     42 HC3          5.4160    -1.1970    -4.3790 h5         1 FTH       0.053100
     43 HC5          2.1950     1.4280    -5.0330 h4         1 FTH       0.040100
     44 HC71         3.0630     1.7840    -1.2560 hc         1 FTH       0.061700
     45 HC72         1.9240     2.3940    -2.4310 hc         1 FTH       0.061700
     46 HC8          1.7060    -0.3390    -1.0900 h1         1 FTH       0.066700
     47 HN9         -0.3400     1.1290    -2.6260 hn         1 FTH       0.444000
     48 H101        -0.1980    -1.7390    -1.9340 h1         1 FTH       0.042700
     49 H102        -1.2680    -0.5530    -1.1740 h1         1 FTH       0.042700
     50 HC12        -0.3680    -2.0780    -4.4980 ha         1 FTH       0.130000
     51 HC13        -2.0110    -2.4200    -6.3270 ha         1 FTH       0.127000
     52 HC17        -5.0000    -0.2930    -4.0290 ha         1 FTH       0.127000
     53 HC18        -3.3540     0.0430    -2.2040 ha         1 FTH       0.130000
     54 H221         2.0840    -0.8550     1.0550 h1         1 FTH       0.053200
     55 H222         3.2100     0.4430     0.6220 h1         1 FTH       0.053200
     56 H231         3.6980    -0.6950     2.8340 hc         1 FTH       0.064200
     57 H232         3.5450     1.0570     2.9460 hc         1 FTH       0.064200
     58 H261         1.1710     2.6440     2.5730 h1         1 FTH       0.082200
     59 H262        -0.4070     1.9470     2.1930 h1         1 FTH       0.082200
     60 HC28        -0.0490     2.6500     5.3330 ha         1 FTH       0.120000
     61 HC29        -2.1040     2.6640     6.7270 ha         1 FTH       0.120000
     62 HC30        -3.7170     0.7810     6.5940 ha         1 FTH       0.117000
     63 HC32        -4.3990    -1.3590     5.6430 ha         1 FTH       0.116000
     64 HC33        -3.9960    -3.2550     4.0900 ha         1 FTH       0.116000
     65 HC34        -1.9600    -3.2840     2.6570 ha         1 FTH       0.114000
     66 HC35        -0.3270    -1.4400     2.7710 ha         1 FTH       0.111000
@<TRIPOS>BOND
     1     1     2 1   
     2     1    39 1   
     3     1    40 1   
     4     1    41 1   
     5     2     3 1   
     6     2     6 1   
     7     3     4 2   
     8     3    42 1   
     9     4     5 1   
    10     5     6 2   
    11     5    43 1   
    12     6     7 1   
    13     7     8 1   
    14     7    44 1   
    15     7    45 1   
    16     8     9 1   
    17     8    19 1   
    18     8    46 1   
    19     9    10 1   
    20     9    47 1   
    21    10    11 1   
    22    10    48 1   
    23    10    49 1   
    24    11    12 ar  
    25    11    18 ar  
    26    12    13 ar  
    27    12    50 1   
    28    13    14 ar  
    29    13    51 1   
    30    14    15 1   
    31    14    17 ar  
    32    15    16 3   
    33    17    18 ar  
    34    17    52 1   
    35    18    53 1   
    36    19    20 2   
    37    19    21 1   
    38    21    22 1   
    39    21    26 1   
    40    22    23 1   
    41    22    54 1   
    42    22    55 1   
    43    23    24 1   
    44    23    56 1   
    45    23    57 1   
    46    24    25 2   
    47    24    37 1   
    48    25    26 1   
    49    25    27 1   
    50    26    58 1   
    51    26    59 1   
    52    27    28 ar  
    53    27    36 ar  
    54    28    29 ar  
    55    28    60 1   
    56    29    30 ar  
    57    29    61 1   
    58    30    31 ar  
    59    30    62 1   
    60    31    32 ar  
    61    31    36 ar  
    62    32    33 ar  
    63    32    63 1   
    64    33    34 ar  
    65    33    64 1   
    66    34    35 ar  
    67    34    65 1   
    68    35    36 ar  
    69    35    66 1   
    70    37    38 3   
@<TRIPOS>SUBSTRUCTURE
     1 FTH         1 TEMP              0 ****  ****    0 ROOT
