@<TRIPOS>MOLECULE
FTH
   66    70     1     0     0
SMALL
abcg2


@<TRIPOS>ATOM
      1 C1           4.0550    -0.9180    -1.5770 c3         1 FTH       0.057900
      2 N2           3.7220     0.0080    -2.6330 na         1 FTH      -0.169500
      3 C3           4.3570     0.1130    -3.8200 cc         1 FTH       0.394400
      4 N4           3.8300     1.0400    -4.5780 nd         1 FTH      -0.670000
      5 C5           2.8020     1.5570    -3.8450 cd         1 FTH       0.254900
      6 C6           2.7100     0.9350    -2.6310 cc         1 FTH      -0.199300
      7 C7           1.7590     1.1190    -1.5050 c3         1 FTH       0.005900
      8 C8           0.5600     0.1490    -1.5530 c3         1 FTH       0.122500
      9 N9          -0.1710     0.3700    -2.7680 n7         1 FTH      -0.867400
     10 C10         -1.2050    -0.5920    -3.0690 c3         1 FTH       0.214100
     11 C11         -1.6030    -0.5280    -4.5210 ca         1 FTH      -0.067300
     12 C12         -0.6590    -0.2300    -5.5030 ca         1 FTH      -0.103500
     13 C13         -1.0130    -0.2060    -6.8400 ca         1 FTH      -0.074000
     14 C14         -2.3310    -0.4790    -7.2090 ca         1 FTH      -0.020000
     15 C15         -2.7020    -0.4520    -8.5860 cg         1 FTH       0.325000
     16 N16         -2.9990    -0.4370    -9.7000 n1         1 FTH      -0.456000
     17 C17         -3.2870    -0.7710    -6.2370 ca         1 FTH      -0.074000
     18 C18         -2.9160    -0.7910    -4.9040 ca         1 FTH      -0.103500
     19 C19         -0.2880     0.3900    -0.2940 c          1 FTH       0.564100
     20 O20         -1.2010     1.2030    -0.3440 o          1 FTH      -0.602100
     21 N21          0.0240    -0.2610     0.8490 n          1 FTH      -0.408800
     22 C22          1.0480    -1.2720     1.0250 c6         1 FTH       0.104000
     23 C23          2.1130    -0.7890     1.9940 c6         1 FTH      -0.047200
     24 C24          1.4550    -0.2250     3.2220 ce         1 FTH      -0.011900
     25 C25          0.1600     0.1150     3.2660 cf         1 FTH      -0.014400
     26 C26         -0.7190     0.0260     2.0570 c6         1 FTH       0.117200
     27 C27         -0.4980     0.6020     4.4990 ca         1 FTH      -0.072800
     28 C28         -0.7280     1.9460     4.6480 ca         1 FTH      -0.078000
     29 C29         -1.3550     2.4500     5.8040 ca         1 FTH      -0.110000
     30 C30         -1.7570     1.5960     6.7930 ca         1 FTH      -0.082000
     31 C31         -1.5540     0.2030     6.6690 ca         1 FTH      -0.037000
     32 C32         -1.9740    -0.6940     7.6800 ca         1 FTH      -0.093000
     33 C33         -1.7830    -2.0410     7.5450 ca         1 FTH      -0.106000
     34 C34         -1.1600    -2.5530     6.3890 ca         1 FTH      -0.098000
     35 C35         -0.7370    -1.7110     5.3970 ca         1 FTH      -0.106000
     36 C36         -0.9170    -0.3110     5.5080 ca         1 FTH      -0.014000
     37 C37          2.2580    -0.0750     4.3910 cg         1 FTH       0.280700
     38 N38          2.9430     0.0320     5.3120 n1         1 FTH      -0.443000
     39 HC11         4.1340    -0.4010    -0.6220 h1         1 FTH       0.049367
     40 HC1A         3.3110    -1.7100    -1.4960 h1         1 FTH       0.049367
     41 HC1B         5.0160    -1.3750    -1.7940 h1         1 FTH       0.049367
     42 HC3          5.2040    -0.5100    -4.0700 h5         1 FTH       0.053100
     43 HC5          2.1730     2.3490    -4.2210 h4         1 FTH       0.040100
     44 HC71         2.2770     1.0360    -0.5460 hc         1 FTH       0.061700
     45 HC72         1.3700     2.1390    -1.5390 hc         1 FTH       0.061700
     46 HC8          0.9270    -0.8790    -1.5860 h1         1 FTH       0.066700
     47 HN9         -0.5460     1.3100    -2.7890 hn         1 FTH       0.444000
     48 H101        -0.8060    -1.5930    -2.8730 h1         1 FTH       0.042700
     49 H102        -2.1020    -0.4990    -2.4420 h1         1 FTH       0.042700
     50 HC12         0.3570    -0.0040    -5.2080 ha         1 FTH       0.130000
     51 HC13        -0.2740     0.0230    -7.5960 ha         1 FTH       0.127000
     52 HC17        -4.3100    -0.9740    -6.5230 ha         1 FTH       0.127000
     53 HC18        -3.6630    -1.0080    -4.1510 ha         1 FTH       0.130000
     54 H221         0.5780    -2.1760     1.4230 h1         1 FTH       0.053200
     55 H222         1.4940    -1.5560     0.0770 h1         1 FTH       0.053200
     56 H231         2.7570    -1.6270     2.2680 hc         1 FTH       0.064200
     57 H232         2.7570    -0.0340     1.5350 hc         1 FTH       0.064200
     58 H261        -1.2500     0.9710     1.9420 h1         1 FTH       0.082200
     59 H262        -1.4880    -0.7380     2.2330 h1         1 FTH       0.082200
     60 HC28        -0.4150     2.6350     3.8730 ha         1 FTH       0.120000
     61 HC29        -1.5140     3.5150     5.9020 ha         1 FTH       0.120000
     62 HC30        -2.2380     1.9780     7.6850 ha         1 FTH       0.117000
     63 HC32        -2.4530    -0.2940     8.5650 ha         1 FTH       0.116000
     64 HC33        -2.1090    -2.7180     8.3240 ha         1 FTH       0.116000
     65 HC34        -1.0150    -3.6200     6.2860 ha         1 FTH       0.114000
     66 HC35        -0.2610    -2.1230     4.5160 ha         1 FTH       0.111000
@<TRIPOS>BOND
     1     1     2 1   
     2     1    39 1   
     3     1    40 1   
     4     1    41 1   
     5     2     3 1   
     6     2     6 1   
     7     3     4 2   
     8     3    42 1   
     9     4     5 1   
    10     5     6 2   
    11     5    43 1   
    12     6     7 1   
    13     7     8 1   
    14     7    44 1   
    15     7    45 1   
    16     8     9 1   
    17     8    19 1   
    18     8    46 1   
    19     9    10 1   
    20     9    47 1   
    21    10    11 1   
    22    10    48 1   
    23    10    49 1   
    24    11    12 ar  
    25    11    18 ar  
    26    12    13 ar  
    27    12    50 1   
    28    13    14 ar  
    29    13    51 1   
    30    14    15 1   
    31    14    17 ar  
    32    15    16 3   
    33    17    18 ar  
    34    17    52 1   
    35    18    53 1   
    36    19    20 2   
    37    19    21 1   
    38    21    22 1   
    39    21    26 1   
    40    22    23 1   
    41    22    54 1   
    42    22    55 1   
    43    23    24 1   
    44    23    56 1   
    45    23    57 1   
    46    24    25 2   
    47    24    37 1   
    48    25    26 1   
    49    25    27 1   
    50    26    58 1   
    51    26    59 1   
    52    27    28 ar  
    53    27    36 ar  
    54    28    29 ar  
    55    28    60 1   
    56    29    30 ar  
    57    29    61 1   
    58    30    31 ar  
    59    30    62 1   
    60    31    32 ar  
    61    31    36 ar  
    62    32    33 ar  
    63    32    63 1   
    64    33    34 ar  
    65    33    64 1   
    66    34    35 ar  
    67    34    65 1   
    68    35    36 ar  
    69    35    66 1   
    70    37    38 3   
@<TRIPOS>SUBSTRUCTURE
     1 FTH         1 TEMP              0 ****  ****    0 ROOT
