@<TRIPOS>MOLECULE
FTI
   58    62     1     0     0
SMALL
No Charge or Current Charge


@<TRIPOS>ATOM
      1 C1          48.2580    51.5310    -2.7020 c6         1 FTI      -0.044200
      2 C2          48.1720    50.1030    -2.1070 c6         1 FTI       0.103000
      3 N1          48.5480    49.9960    -0.6610 n          1 FTI      -0.411800
      4 C3          49.0380    51.2420     0.0000 c6         1 FTI       0.129200
      5 C4          49.9310    52.0730    -0.9230 ce         1 FTI      -0.023400
      6 C5          51.2270    52.5280    -0.3530 ca         1 FTI      -0.063800
      7 C6          52.4160    51.7810    -0.5440 ca         1 FTI      -0.016000
      8 C7          53.6350    52.2630    -0.0090 ca         1 FTI      -0.043000
      9 C8          53.6590    53.4660     0.7200 ca         1 FTI      -0.082000
     10 C9          52.4750    54.1940     0.9170 ca         1 FTI      -0.119000
     11 C10         51.2650    53.7280     0.3800 ca         1 FTI      -0.087000
     12 C11         54.8270    51.5380    -0.2020 ca         1 FTI      -0.098000
     13 C12         48.4800    48.7800     0.0560 c          1 FTI       0.604100
     14 C13         52.4130    50.5590    -1.2560 ca         1 FTI      -0.101000
     15 C14         54.8120    50.3290    -0.9160 ca         1 FTI      -0.105000
     16 C15         53.6050    49.8390    -1.4390 ca         1 FTI      -0.096000
     17 N2          51.3540    46.6130    -2.8760 nc         1 FTI      -0.674000
     18 C17         51.8570    46.4280    -1.6630 cd         1 FTI       0.404400
     19 N3          50.8980    46.6850    -0.6920 na         1 FTI      -0.167500
     20 C18         49.7340    47.0550    -1.3580 cd         1 FTI      -0.209300
     21 C19         50.0580    46.9950    -2.6890 cc         1 FTI       0.236900
     22 C20         48.4090    47.4530    -0.7270 c3         1 FTI      -0.074100
     23 C21         52.1070    48.7220     1.6250 ca         1 FTI      -0.094500
     24 C22         52.2880    47.3720     1.2710 ca         1 FTI      -0.096300
     25 C23         53.5670    46.7940     1.3930 ca         1 FTI      -0.094500
     26 C24         54.6500    47.5580     1.8630 ca         1 FTI      -0.070500
     27 C25         54.4630    48.9070     2.2200 ca         1 FTI      -0.006000
     28 C26         53.1860    49.4860     2.1010 ca         1 FTI      -0.070500
     29 C27         55.5690    49.6900     2.7000 cg         1 FTI       0.328000
     30 N4          56.4730    50.3230     3.0830 n1         1 FTI      -0.457000
     31 C28         49.5490    52.1980    -2.2210 cf         1 FTI      -0.006900
     32 O1          48.5950    48.7750     1.2760 o          1 FTI      -0.621100
     33 C29         50.2920    52.8730    -3.2430 ch         1 FTI       0.284700
     34 N5          50.8670    53.4150    -4.1030 n1         1 FTI      -0.436000
     35 HC1A        47.3960    52.1300    -2.3760 hc         1 FTI       0.070200
     36 HC12        48.2070    51.4730    -3.7990 hc         1 FTI       0.070200
     37 HC2A        48.8490    49.4610    -2.6850 h1         1 FTI       0.055200
     38 HC22        47.1520    49.7180    -2.2500 h1         1 FTI       0.055200
     39 HC31        49.6070    50.9920     0.9070 h1         1 FTI       0.076200
     40 HC32        48.1770    51.8460     0.3180 h1         1 FTI       0.076200
     41 HC8         54.5930    53.8370     1.1350 ha         1 FTI       0.123000
     42 HC9         52.4970    55.1240     1.4810 ha         1 FTI       0.119000
     43 HC10        50.3530    54.3020     0.5290 ha         1 FTI       0.114000
     44 HC11        55.7650    51.9080     0.2060 ha         1 FTI       0.119000
     45 HC13        51.4940    50.1520    -1.6690 ha         1 FTI       0.120000
     46 HC14        55.7340    49.7700    -1.0580 ha         1 FTI       0.115000
     47 HC15        53.5930    48.9000    -1.9870 ha         1 FTI       0.123000
     48 H161        51.2960    45.4830     0.9750 h1         1 FTI       0.078200
     49 H162        50.2040    46.8230     1.3000 h1         1 FTI       0.078200
     50 HC17        52.8650    46.1150    -1.4150 h5         1 FTI       0.058100
     51 HC19        49.4270    47.2110    -3.5410 h4         1 FTI       0.036100
     52 H201        47.6860    47.5600    -1.5420 hc         1 FTI       0.078200
     53 H202        48.0690    46.6590    -0.0520 hc         1 FTI       0.078200
     54 HC23        53.7260    45.7510     1.1240 ha         1 FTI       0.129500
     55 HC24        55.6340    47.0990     1.9500 ha         1 FTI       0.130000
     56 HC26        53.0290    50.5290     2.3680 ha         1 FTI       0.130000
     57 C16         51.1140    46.5430     0.7590 c3         1 FTI       0.114900
     58 HC21        51.1310    49.1870     1.5300 ha         1 FTI       0.129500
@<TRIPOS>BOND
     1     1     2 1   
     2     1    31 1   
     3     1    35 1   
     4     1    36 1   
     5     2     3 1   
     6     2    37 1   
     7     2    38 1   
     8     3     4 1   
     9     3    13 1   
    10     4     5 1   
    11     4    39 1   
    12     4    40 1   
    13     5     6 1   
    14     5    31 2   
    15     6     7 ar  
    16     6    11 ar  
    17     7     8 ar  
    18     7    14 ar  
    19     8     9 ar  
    20     8    12 ar  
    21     9    10 ar  
    22     9    41 1   
    23    10    11 ar  
    24    10    42 1   
    25    11    43 1   
    26    12    15 ar  
    27    12    44 1   
    28    13    22 1   
    29    13    32 2   
    30    14    16 ar  
    31    14    45 1   
    32    15    16 ar  
    33    15    46 1   
    34    16    47 1   
    35    17    18 2   
    36    17    21 1   
    37    18    19 1   
    38    18    50 1   
    39    19    20 1   
    40    19    57 1   
    41    20    21 2   
    42    20    22 1   
    43    21    51 1   
    44    22    52 1   
    45    22    53 1   
    46    23    24 ar  
    47    23    28 ar  
    48    23    58 1   
    49    24    25 ar  
    50    24    57 1   
    51    25    26 ar  
    52    25    54 1   
    53    26    27 ar  
    54    26    55 1   
    55    27    28 ar  
    56    27    29 1   
    57    28    56 1   
    58    29    30 3   
    59    31    33 1   
    60    33    34 3   
    61    48    57 1   
    62    49    57 1   
@<TRIPOS>SUBSTRUCTURE
     1 FTI         1 TEMP              0 ****  ****    0 ROOT
