@<TRIPOS>MOLECULE
FTI
   58    62     1     0     0
SMALL
abcg2


@<TRIPOS>ATOM
      1 C1          48.3580    51.4660    -2.5940 c6         1 FTI      -0.044200
      2 C2          48.1880    50.0420    -2.0610 c6         1 FTI       0.103000
      3 N1          48.5110    49.9840    -0.6280 n          1 FTI      -0.411800
      4 C3          48.9470    51.2300     0.0190 c6         1 FTI       0.129200
      5 C4          50.0140    51.8670    -0.8410 ce         1 FTI      -0.023400
      6 C5          51.3180    52.2430    -0.2600 ca         1 FTI      -0.063800
      7 C6          52.5140    51.5700    -0.6620 ca         1 FTI      -0.016000
      8 C7          53.7610    52.0210    -0.1310 ca         1 FTI      -0.043000
      9 C8          53.7780    53.0820     0.8050 ca         1 FTI      -0.082000
     10 C9          52.6100    53.6670     1.2200 ca         1 FTI      -0.119000
     11 C10         51.3770    53.2430     0.6860 ca         1 FTI      -0.087000
     12 C11         54.9550    51.3650    -0.5200 ca         1 FTI      -0.098000
     13 C12         48.5210    48.8360     0.0850 c          1 FTI       0.604100
     14 C13         52.5150    50.4380    -1.5150 ca         1 FTI      -0.101000
     15 C14         54.9220    50.2860    -1.3620 ca         1 FTI      -0.105000
     16 C15         53.6860    49.8110    -1.8520 ca         1 FTI      -0.096000
     17 N2          51.3700    46.7750    -2.8620 nc         1 FTI      -0.674000
     18 C17         51.8470    46.6130    -1.6450 cd         1 FTI       0.404400
     19 N3          50.9030    46.8440    -0.6940 na         1 FTI      -0.167500
     20 C18         49.7300    47.1770    -1.3570 cd         1 FTI      -0.209300
     21 C19         50.0500    47.1260    -2.6910 cc         1 FTI       0.236900
     22 C20         48.4350    47.5200    -0.6890 c3         1 FTI      -0.074100
     23 C21         51.8680    48.8850     1.6740 ca         1 FTI      -0.094500
     24 C22         52.1840    47.5830     1.2880 ca         1 FTI      -0.096300
     25 C23         53.5040    47.1420     1.3910 ca         1 FTI      -0.094500
     26 C24         54.4980    47.9870     1.8570 ca         1 FTI      -0.070500
     27 C25         54.1690    49.2920     2.2350 ca         1 FTI      -0.006000
     28 C26         52.8470    49.7400     2.1470 ca         1 FTI      -0.070500
     29 C27         55.1830    50.1770     2.7080 cg         1 FTI       0.328000
     30 N4          55.9970    50.8990     3.0900 n1         1 FTI      -0.457000
     31 C28         49.6910    52.0030    -2.1390 cf         1 FTI      -0.006900
     32 O1          48.6580    48.8180     1.3110 o          1 FTI      -0.621100
     33 C29         50.5780    52.5770    -3.0870 ch         1 FTI       0.284700
     34 N5          51.2680    53.0450    -3.8860 n1         1 FTI      -0.436000
     35 HC1A        47.5560    52.1080    -2.2200 hc         1 FTI       0.070200
     36 HC12        48.2830    51.4480    -3.6790 hc         1 FTI       0.070200
     37 HC2A        48.8560    49.3850    -2.6140 h1         1 FTI       0.055200
     38 HC22        47.1610    49.7110    -2.2220 h1         1 FTI       0.055200
     39 HC31        49.3260    50.9850     1.0040 h1         1 FTI       0.076200
     40 HC32        48.1000    51.9120     0.1400 h1         1 FTI       0.076200
     41 HC8         54.7310    53.4070     1.2040 ha         1 FTI       0.123000
     42 HC9         52.6260    54.4650     1.9500 ha         1 FTI       0.119000
     43 HC10        50.4640    53.7320     1.0030 ha         1 FTI       0.114000
     44 HC11        55.8940    51.7200    -0.1140 ha         1 FTI       0.119000
     45 HC13        51.5770    50.0480    -1.8840 ha         1 FTI       0.120000
     46 HC14        55.8390    49.7820    -1.6390 ha         1 FTI       0.115000
     47 HC15        53.6610    48.9370    -2.4890 ha         1 FTI       0.123000
     48 H161        51.3850    45.6260     0.9270 h1         1 FTI       0.078200
     49 H162        50.1660    46.8630     1.2440 h1         1 FTI       0.078200
     50 HC17        52.8560    46.3310    -1.3920 h5         1 FTI       0.058100
     51 HC19        49.3970    47.3180    -3.5270 h4         1 FTI       0.036100
     52 H201        47.6630    47.5620    -1.4560 hc         1 FTI       0.078200
     53 H202        48.1450    46.7550     0.0310 hc         1 FTI       0.078200
     54 HC23        53.7560    46.1290     1.1040 ha         1 FTI       0.129500
     55 HC24        55.5220    47.6450     1.9300 ha         1 FTI       0.130000
     56 HC26        52.5990    50.7510     2.4380 ha         1 FTI       0.130000
     57 C16         51.1120    46.6660     0.7490 c3         1 FTI       0.114900
     58 HC21        50.8460    49.2270     1.6060 ha         1 FTI       0.129500
@<TRIPOS>BOND
     1     1     2 1   
     2     1    31 1   
     3     1    35 1   
     4     1    36 1   
     5     2     3 1   
     6     2    37 1   
     7     2    38 1   
     8     3     4 1   
     9     3    13 1   
    10     4     5 1   
    11     4    39 1   
    12     4    40 1   
    13     5     6 1   
    14     5    31 2   
    15     6     7 ar  
    16     6    11 ar  
    17     7     8 ar  
    18     7    14 ar  
    19     8     9 ar  
    20     8    12 ar  
    21     9    10 ar  
    22     9    41 1   
    23    10    11 ar  
    24    10    42 1   
    25    11    43 1   
    26    12    15 ar  
    27    12    44 1   
    28    13    22 1   
    29    13    32 2   
    30    14    16 ar  
    31    14    45 1   
    32    15    16 ar  
    33    15    46 1   
    34    16    47 1   
    35    17    18 2   
    36    17    21 1   
    37    18    19 1   
    38    18    50 1   
    39    19    20 1   
    40    19    57 1   
    41    20    21 2   
    42    20    22 1   
    43    21    51 1   
    44    22    52 1   
    45    22    53 1   
    46    23    24 ar  
    47    23    28 ar  
    48    23    58 1   
    49    24    25 ar  
    50    24    57 1   
    51    25    26 ar  
    52    25    54 1   
    53    26    27 ar  
    54    26    55 1   
    55    27    28 ar  
    56    27    29 1   
    57    28    56 1   
    58    29    30 3   
    59    31    33 1   
    60    33    34 3   
    61    48    57 1   
    62    49    57 1   
@<TRIPOS>SUBSTRUCTURE
     1 FTI         1 TEMP              0 ****  ****    0 ROOT
