@<TRIPOS>MOLECULE
FTJ
   36    38     1     0     0
SMALL
bcc


@<TRIPOS>ATOM
      1 O4          -6.9240     2.1290     0.6970 o          1 FTJ      -0.811800
      2 C4           4.0500     2.0420     0.2370 ca         1 FTJ      -0.112000
      3 C3           5.2100     1.2560     0.3500 ca         1 FTJ       0.012400
      4 O3          -6.1690     1.9670    -1.3970 o          1 FTJ      -0.811800
      5 C2           5.1580    -0.1110     0.3040 ca         1 FTJ      -0.139300
      6 O2          -4.4530     0.1020    -0.8050 os         1 FTJ      -0.269900
      7 C1           3.9090    -0.7370     0.1380 ca         1 FTJ       0.247300
      8 CL1          6.7330     2.0530     0.5530 cl         1 FTJ      -0.119400
      9 C5           2.8310     1.4390     0.0750 ca         1 FTJ      -0.156300
     10 C6           2.7350     0.0360     0.0220 ca         1 FTJ       0.341300
     11 N1           1.5230    -0.5540    -0.1380 nb         1 FTJ      -0.702000
     12 N2           3.8480    -2.0950     0.0920 nb         1 FTJ      -0.620000
     13 C8           2.6860    -2.6400    -0.0600 ca         1 FTJ       0.307900
     14 C7           1.5030    -1.8430    -0.1760 ca         1 FTJ       0.550300
     15 C9          -0.8270    -1.8230    -0.4160 ca         1 FTJ       0.006100
     16 C10         -1.3730    -1.5630    -1.6620 ca         1 FTJ      -0.083500
     17 C11         -2.5950    -0.9220    -1.7530 ca         1 FTJ      -0.204500
     18 C14         -1.4900    -1.4370     0.7320 ca         1 FTJ      -0.083500
     19 C13         -2.7170    -0.7910     0.6440 ca         1 FTJ      -0.204500
     20 C12         -3.2830    -0.5230    -0.6030 ca         1 FTJ       0.195100
     21 C15         -5.2340     0.5510     0.2960 c3         1 FTJ      -0.008900
     22 C17         -5.9990    -0.6020     0.9290 c3         1 FTJ      -0.099100
     23 C16         -6.1980     1.6540    -0.1980 c          1 FTJ       0.941600
     24 H4           1.9310     2.0330    -0.0130 ha         1 FTJ       0.164000
     25 H5           2.6180    -3.7220    -0.1000 h4         1 FTJ       0.041100
     26 H6          -0.8520    -1.8640    -2.5620 ha         1 FTJ       0.126500
     27 H7          -3.0260    -0.7210    -2.7260 ha         1 FTJ       0.148000
     28 H8          -1.0670    -1.6440     1.7060 ha         1 FTJ       0.126500
     29 H9          -3.2080    -0.5090     1.5650 ha         1 FTJ       0.148000
     30 H10         -4.5780     1.0130     1.0460 h1         1 FTJ       0.030700
     31 H11         -5.3400    -1.3940     1.2880 hc         1 FTJ       0.029033
     32 H12         -6.5730    -0.2410     1.7800 hc         1 FTJ       0.029033
     33 H13         -6.6960    -1.0460     0.2150 hc         1 FTJ       0.029033
     34 H2           4.1230     3.1200     0.2760 ha         1 FTJ       0.148000
     35 O1           0.3640    -2.5250    -0.3280 os         1 FTJ      -0.353400
     36 H3           6.0460    -0.7220     0.3910 ha         1 FTJ       0.158000
@<TRIPOS>BOND
     1     1    23 1   
     2     2     3 ar  
     3     2     9 ar  
     4     2    34 1   
     5     3     5 ar  
     6     3     8 1   
     7     4    23 1   
     8     5     7 ar  
     9     5    36 1   
    10     6    20 1   
    11     6    21 1   
    12     7    10 ar  
    13     7    12 ar  
    14     9    10 ar  
    15     9    24 1   
    16    10    11 ar  
    17    11    14 ar  
    18    12    13 ar  
    19    13    14 ar  
    20    13    25 1   
    21    14    35 1   
    22    15    16 ar  
    23    15    18 ar  
    24    15    35 1   
    25    16    17 ar  
    26    16    26 1   
    27    17    20 ar  
    28    17    27 1   
    29    18    19 ar  
    30    18    28 1   
    31    19    20 ar  
    32    19    29 1   
    33    21    22 1   
    34    21    23 1   
    35    21    30 1   
    36    22    31 1   
    37    22    32 1   
    38    22    33 1   
@<TRIPOS>SUBSTRUCTURE
     1 FTJ         1 TEMP              0 ****  ****    0 ROOT
