@<TRIPOS>MOLECULE
FTJ
   36    38     1     0     0
SMALL
No Charge or Current Charge


@<TRIPOS>ATOM
      1 O4          -7.0840     2.1080     0.9030 o          1 FTJ      -0.706500
      2 C4           4.2920     2.0290     0.3880 ca         1 FTJ      -0.094000
      3 C3           5.3060     1.1820     0.8550 ca         1 FTJ       0.104000
      4 O3          -6.9050     1.5570    -1.1680 o          1 FTJ      -0.706500
      5 C2           5.1220    -0.2080     0.8510 ca         1 FTJ      -0.056000
      6 O2          -4.6860     0.0080    -0.8070 os         1 FTJ      -0.293100
      7 C1           3.9230    -0.7770     0.3820 ca         1 FTJ       0.182000
      8 Cl1          6.8150     1.8670     1.4460 cl         1 FTJ      -0.211000
      9 C5           3.0860     1.4810    -0.0850 ca         1 FTJ      -0.073000
     10 C6           2.8790     0.0890    -0.0980 ca         1 FTJ       0.276000
     11 N1           1.6980    -0.4000    -0.5630 nb         1 FTJ      -0.702000
     12 N2           3.7790    -2.1300     0.3900 nb         1 FTJ      -0.620000
     13 C8           2.5900    -2.6060    -0.0770 ca         1 FTJ       0.307900
     14 C7           1.5490    -1.7540    -0.5420 ca         1 FTJ       0.550300
     15 C9          -0.8540    -1.7170    -0.9390 ca         1 FTJ       0.006100
     16 C10         -1.7310    -1.8150    -2.0320 ca         1 FTJ      -0.065500
     17 C11         -3.0070    -1.2270    -1.9640 ca         1 FTJ      -0.186500
     18 C14         -1.2640    -1.0490     0.2320 ca         1 FTJ      -0.065500
     19 C13         -2.5410    -0.4620     0.2980 ca         1 FTJ      -0.186500
     20 C12         -3.4220    -0.5530    -0.8030 ca         1 FTJ       0.195100
     21 C15         -5.3260     0.5670     0.3720 c3         1 FTJ       0.014300
     22 C17         -5.7530    -0.6120     1.2850 c3         1 FTJ      -0.099100
     23 C16         -6.5500     1.4720     0.0020 c          1 FTJ       0.731000
     24 H4           2.3020     2.1410    -0.4460 ha         1 FTJ       0.146000
     25 H5           2.4620    -3.6870    -0.0800 h4         1 FTJ       0.041100
     26 H6          -1.4210    -2.3410    -2.9310 ha         1 FTJ       0.108500
     27 H7          -3.6810    -1.2980    -2.8130 ha         1 FTJ       0.130000
     28 H8          -0.5990    -0.9840     1.0900 ha         1 FTJ       0.108500
     29 H9          -2.8270     0.0550     1.2080 ha         1 FTJ       0.130000
     30 H10         -4.6270     1.2160     0.9140 h1         1 FTJ       0.030700
     31 H11         -4.8970    -1.2350     1.5670 hc         1 FTJ       0.029033
     32 H12         -6.2090    -0.2360     2.2080 hc         1 FTJ       0.029033
     33 H13         -6.4880    -1.2460     0.7760 hc         1 FTJ       0.029033
     34 H2           4.4370     3.1060     0.3920 ha         1 FTJ       0.130000
     35 O1           0.3820    -2.3220    -1.0230 os         1 FTJ      -0.353400
     36 H3           5.9160    -0.8540     1.2140 ha         1 FTJ       0.140000
@<TRIPOS>BOND
     1     1    23 1   
     2     2     3 ar  
     3     2     9 ar  
     4     2    34 1   
     5     3     5 ar  
     6     3     8 1   
     7     4    23 1   
     8     5     7 ar  
     9     5    36 1   
    10     6    20 1   
    11     6    21 1   
    12     7    10 ar  
    13     7    12 ar  
    14     9    10 ar  
    15     9    24 1   
    16    10    11 ar  
    17    11    14 ar  
    18    12    13 ar  
    19    13    14 ar  
    20    13    25 1   
    21    14    35 1   
    22    15    16 ar  
    23    15    18 ar  
    24    15    35 1   
    25    16    17 ar  
    26    16    26 1   
    27    17    20 ar  
    28    17    27 1   
    29    18    19 ar  
    30    18    28 1   
    31    19    20 ar  
    32    19    29 1   
    33    21    22 1   
    34    21    23 1   
    35    21    30 1   
    36    22    31 1   
    37    22    32 1   
    38    22    33 1   
@<TRIPOS>SUBSTRUCTURE
     1 FTJ         1 TEMP              0 ****  ****    0 ROOT
