@<TRIPOS>MOLECULE
FTK
   27    27     1     0     0
SMALL
bcc


@<TRIPOS>ATOM
      1 C1           3.7290     1.0900    -0.6140 ca         1 FTK      -0.078500
      2 C2           5.0950     1.2440    -0.4320 ca         1 FTK      -0.140500
      3 C3           5.7830     0.3880     0.4170 ca         1 FTK      -0.095000
      4 C4           5.1030    -0.6240     1.0860 ca         1 FTK      -0.140500
      5 C5           3.7400    -0.7790     0.9070 ca         1 FTK      -0.078500
      6 C6           3.0390     0.0790     0.0550 ca         1 FTK      -0.179600
      7 C7           1.5780    -0.1140    -0.1120 c          1 FTK       0.591700
      8 O7           0.9790    -0.9880     0.4760 o          1 FTK      -0.510100
      9 C8           0.8380     0.8150    -1.0540 c3         1 FTK      -0.289400
     10 C9          -0.6220     0.4390    -1.1130 c          1 FTK       0.603100
     11 O9          -1.0720    -0.2770    -1.9700 o          1 FTK      -0.483100
     12 C10         -1.4990     1.0510    -0.0400 c3         1 FTK      -0.290400
     13 C11         -2.8950     0.5080    -0.1220 c          1 FTK       0.535100
     14 O11         -3.7600     0.9570    -0.8160 o          1 FTK      -0.430100
     15 C12         -3.1930    -0.7170     0.7590 c3         1 FTK       0.567900
     16 F1          -4.3670    -1.2560     0.4700 f          1 FTK      -0.219967
     17 F2          -2.2500    -1.6470     0.6100 f          1 FTK      -0.219967
     18 F3          -3.2030    -0.3430     2.0420 f          1 FTK      -0.219967
     19 H1           3.2120     1.7680    -1.2800 ha         1 FTK       0.142500
     20 H2           5.6220     2.0320    -0.9540 ha         1 FTK       0.138500
     21 H3           6.8490     0.5090     0.5590 ha         1 FTK       0.136000
     22 H4           5.6400    -1.2920     1.7470 ha         1 FTK       0.138500
     23 H5           3.2150    -1.5680     1.4270 ha         1 FTK       0.142500
     24 H6           0.9580     1.8480    -0.7160 hc         1 FTK       0.090200
     25 H7           1.2730     0.7470    -2.0540 hc         1 FTK       0.090200
     26 H8          -1.0440     0.9020     0.9420 hc         1 FTK       0.100200
     27 H9          -1.5240     2.1320    -0.2110 hc         1 FTK       0.100200
@<TRIPOS>BOND
     1     1     2 ar  
     2     1     6 ar  
     3     1    19 1   
     4     2     3 ar  
     5     2    20 1   
     6     3     4 ar  
     7     3    21 1   
     8     4     5 ar  
     9     4    22 1   
    10     5     6 ar  
    11     5    23 1   
    12     6     7 1   
    13     7     8 2   
    14     7     9 1   
    15     9    10 1   
    16     9    24 1   
    17     9    25 1   
    18    10    11 2   
    19    10    12 1   
    20    12    13 1   
    21    12    26 1   
    22    12    27 1   
    23    13    14 2   
    24    13    15 1   
    25    15    16 1   
    26    15    17 1   
    27    15    18 1   
@<TRIPOS>SUBSTRUCTURE
     1 FTK         1 TEMP              0 ****  ****    0 ROOT
