@<TRIPOS>MOLECULE
FTK
   27    27     1     0     0
SMALL
No Charge or Current Charge


@<TRIPOS>ATOM
      1 C1           3.6970     1.3470     0.0500 ca         1 FTK      -0.060500
      2 C2           5.0700     1.1430    -0.1740 ca         1 FTK      -0.122500
      3 C3           5.6090    -0.1530    -0.1350 ca         1 FTK      -0.077000
      4 C4           4.7730    -1.2470     0.1380 ca         1 FTK      -0.122500
      5 C5           3.4000    -1.0480     0.3640 ca         1 FTK      -0.060500
      6 C6           2.8430     0.2500     0.3120 ca         1 FTK      -0.179600
      7 C7           1.3630     0.4270     0.5630 c          1 FTK       0.591700
      8 O7           0.7790    -0.3070     1.3480 o          1 FTK      -0.510100
      9 C8           0.5850     1.5190    -0.1540 c3         1 FTK      -0.289400
     10 C9          -0.2560     0.8330    -1.2130 c          1 FTK       0.603100
     11 O9           0.2650     0.3310    -2.1970 o          1 FTK      -0.483100
     12 C10         -1.7650     0.8110    -1.0260 c3         1 FTK      -0.290400
     13 C11         -2.1510    -0.4950    -0.3340 c          1 FTK       0.535100
     14 O11         -2.0610    -1.5600    -0.9340 o          1 FTK      -0.430100
     15 C12         -2.7270    -0.4060     1.1080 c3         1 FTK       0.204000
     16 F1          -4.0310    -0.0420     1.0850 f          1 FTK      -0.098667
     17 F2          -2.6540    -1.5960     1.7530 f          1 FTK      -0.098667
     18 F3          -2.0710     0.5000     1.8710 f          1 FTK      -0.098667
     19 H1           3.3170     2.3660     0.0390 ha         1 FTK       0.124500
     20 H2           5.7190     1.9930    -0.3730 ha         1 FTK       0.120500
     21 H3           6.6720    -0.3080    -0.3080 ha         1 FTK       0.118000
     22 H4           5.1890    -2.2520     0.1740 ha         1 FTK       0.120500
     23 H5           2.7670    -1.9090     0.5720 ha         1 FTK       0.124500
     24 H6          -0.0560     2.0330     0.5680 hc         1 FTK       0.090200
     25 H7           1.2620     2.2030    -0.6710 hc         1 FTK       0.090200
     26 H8          -2.0800     1.6510    -0.3990 hc         1 FTK       0.100200
     27 H9          -2.2340     0.8210    -2.0160 hc         1 FTK       0.100200
@<TRIPOS>BOND
     1     1     2 ar  
     2     1     6 ar  
     3     1    19 1   
     4     2     3 ar  
     5     2    20 1   
     6     3     4 ar  
     7     3    21 1   
     8     4     5 ar  
     9     4    22 1   
    10     5     6 ar  
    11     5    23 1   
    12     6     7 1   
    13     7     8 2   
    14     7     9 1   
    15     9    10 1   
    16     9    24 1   
    17     9    25 1   
    18    10    11 2   
    19    10    12 1   
    20    12    13 1   
    21    12    26 1   
    22    12    27 1   
    23    13    14 2   
    24    13    15 1   
    25    15    16 1   
    26    15    17 1   
    27    15    18 1   
@<TRIPOS>SUBSTRUCTURE
     1 FTK         1 TEMP              0 ****  ****    0 ROOT
