@<TRIPOS>MOLECULE
FTL
   58    62     1     0     0
SMALL
No Charge or Current Charge


@<TRIPOS>ATOM
      1 C8          -0.3640     1.2500     1.3690 c3         1 FTL       0.268100
      2 N2          -0.8410    -0.1340     1.1190 nh         1 FTL      -0.826400
      3 C40         -1.0680    -0.5900    -0.1920 ca         1 FTL       0.367000
      4 C43         -2.2960    -1.1750    -0.5390 ca         1 FTL      -0.200000
      5 C44         -2.5250    -1.6330    -1.8470 ca         1 FTL      -0.026000
      6 C45         -1.5220    -1.5080    -2.8280 ca         1 FTL      -0.067000
      7 C46         -0.2760    -0.9120    -2.4960 cp         1 FTL       0.050000
      8 C47         -0.0710    -0.4680    -1.1700 ca         1 FTL      -0.193000
      9 C51          0.8210    -0.7610    -3.4970 cp         1 FTL      -0.046000
     10 C52          0.7840     0.2220    -4.5270 ca         1 FTL      -0.015000
     11 C53          1.8480     0.3110    -5.4580 ca         1 FTL      -0.037000
     12 C54          2.9460    -0.5640    -5.3620 ca         1 FTL      -0.087000
     13 C55          2.9950    -1.5240    -4.3410 ca         1 FTL      -0.112000
     14 C56          1.9430    -1.6190    -3.4180 ca         1 FTL      -0.088000
     15 C65         -1.7870    -2.0050    -4.1510 cg         1 FTL       0.335000
     16 C7           1.8160     1.2760    -6.4830 ca         1 FTL      -0.098000
     17 N1          -2.0140    -2.4140    -5.2210 n1         1 FTL      -0.460000
     18 C2          -0.2970     1.1260    -4.6390 ca         1 FTL      -0.097000
     19 C3           0.7320     2.1620    -6.5870 ca         1 FTL      -0.105000
     20 C4          -0.3220     2.0880    -5.6640 ca         1 FTL      -0.103000
     21 N3          -3.7530     0.7350     4.2800 nc         1 FTL      -0.669000
     22 C10         -3.2330     0.2720     3.1030 cc         1 FTL       0.259900
     23 C12         -2.0360    -0.3580     3.2990 cd         1 FTL      -0.251300
     24 N4          -1.8070    -0.2850     4.6660 na         1 FTL      -0.163500
     25 C5          -2.8820     0.3950     5.2220 cd         1 FTL       0.399400
     26 C15         -0.6540    -0.8260     5.4040 c3         1 FTL       0.054900
     27 C16          1.9090     0.7500     2.3990 ca         1 FTL      -0.077000
     28 C11          0.6510     1.3760     2.5010 ca         1 FTL      -0.115300
     29 C13          0.3350     2.1100     3.6610 ca         1 FTL      -0.076000
     30 C14          1.2610     2.2090     4.7170 ca         1 FTL      -0.015000
     31 C17          2.5150     1.5780     4.6080 ca         1 FTL      -0.070000
     32 C6           2.8370     0.8510     3.4490 ca         1 FTL      -0.113000
     33 C9           0.9220     2.9420     5.9060 cg         1 FTL       0.319000
     34 N5           0.6390     3.5290     6.8750 n1         1 FTL      -0.446000
     35 C18         -1.1280    -1.0020     2.2820 c3         1 FTL       0.305100
     36 HC81         0.0950     1.6640     0.4610 h1         1 FTL       0.065700
     37 HC82        -1.2290     1.8910     1.5900 h1         1 FTL       0.065700
     38 HC43        -3.0820    -1.2680     0.2040 ha         1 FTL       0.122000
     39 HC44        -3.4830    -2.0870    -2.0960 ha         1 FTL       0.124000
     40 HC47         0.8860    -0.0280    -0.9050 ha         1 FTL       0.126000
     41 HC54         3.7640    -0.4970    -6.0760 ha         1 FTL       0.115000
     42 HC55         3.8470    -2.1970    -4.2670 ha         1 FTL       0.115000
     43 HC56         1.9890    -2.3700    -2.6320 ha         1 FTL       0.115000
     44 HC7          2.6320     1.3420    -7.1990 ha         1 FTL       0.113000
     45 HC2         -1.1240     1.0970    -3.9350 ha         1 FTL       0.120000
     46 HC3          0.7110     2.9070    -7.3790 ha         1 FTL       0.114000
     47 HC4         -1.1600     2.7770    -5.7410 ha         1 FTL       0.114000
     48 HC5         -2.9570     0.5940     6.2850 h5         1 FTL       0.056100
     49 H151        -0.7160    -1.9200     5.4300 h1         1 FTL       0.054700
     50 H152         0.2790    -0.5280     4.9100 h1         1 FTL       0.054700
     51 H153        -0.6530    -0.4390     6.4310 h1         1 FTL       0.054700
     52 HC16         2.1600     0.1770     1.5080 ha         1 FTL       0.129000
     53 HC13        -0.6380     2.5910     3.7490 ha         1 FTL       0.124000
     54 HC17         3.2380     1.6470     5.4180 ha         1 FTL       0.129000
     55 HC6          3.8050     0.3610     3.3660 ha         1 FTL       0.124000
     56 H181        -0.1810    -1.2900     2.7590 h1         1 FTL       0.061200
     57 H182        -1.5980    -1.9390     1.9520 h1         1 FTL       0.061200
     58 HC10        -3.7620     0.4290     2.1710 h4         1 FTL       0.042100
@<TRIPOS>BOND
     1     1     2 1   
     2     1    28 1   
     3     1    36 1   
     4     1    37 1   
     5     2     3 1   
     6     2    35 1   
     7     3     4 ar  
     8     3     8 ar  
     9     4     5 ar  
    10     4    38 1   
    11     5     6 ar  
    12     5    39 1   
    13     6     7 ar  
    14     6    15 1   
    15     7     8 ar  
    16     7     9 1   
    17     8    40 1   
    18     9    10 ar  
    19     9    14 ar  
    20    10    11 ar  
    21    10    18 ar  
    22    11    12 ar  
    23    11    16 ar  
    24    12    13 ar  
    25    12    41 1   
    26    13    14 ar  
    27    13    42 1   
    28    14    43 1   
    29    15    17 3   
    30    16    19 ar  
    31    16    44 1   
    32    18    20 ar  
    33    18    45 1   
    34    19    20 ar  
    35    19    46 1   
    36    20    47 1   
    37    21    22 1   
    38    21    25 2   
    39    22    23 2   
    40    22    58 1   
    41    23    24 1   
    42    23    35 1   
    43    24    25 1   
    44    24    26 1   
    45    25    48 1   
    46    26    49 1   
    47    26    50 1   
    48    26    51 1   
    49    27    28 ar  
    50    27    32 ar  
    51    27    52 1   
    52    28    29 ar  
    53    29    30 ar  
    54    29    53 1   
    55    30    31 ar  
    56    30    33 1   
    57    31    32 ar  
    58    31    54 1   
    59    32    55 1   
    60    33    34 3   
    61    35    56 1   
    62    35    57 1   
@<TRIPOS>SUBSTRUCTURE
     1 FTL         1 TEMP              0 ****  ****    0 ROOT
