@<TRIPOS>MOLECULE
FTL
   58    62     1     0     0
SMALL
abcg2


@<TRIPOS>ATOM
      1 C8          -0.1300     0.9100     1.7940 c3         1 FTL       0.268100
      2 N2          -0.8140    -0.3150     1.4680 nh         1 FTL      -0.826400
      3 C40         -0.8720    -0.8110     0.1990 ca         1 FTL       0.367000
      4 C43         -1.8040    -1.8010    -0.1690 ca         1 FTL      -0.200000
      5 C44         -1.8370    -2.2990    -1.4510 ca         1 FTL      -0.026000
      6 C45         -0.9540    -1.8330    -2.4270 ca         1 FTL      -0.067000
      7 C46         -0.0160    -0.8480    -2.0860 cp         1 FTL       0.050000
      8 C47          0.0170    -0.3560    -0.7970 ca         1 FTL      -0.193000
      9 C51          0.9660    -0.3560    -3.0810 cp         1 FTL      -0.046000
     10 C52          0.5660     0.5360    -4.1160 ca         1 FTL      -0.015000
     11 C53          1.5370     0.9720    -5.0560 ca         1 FTL      -0.037000
     12 C54          2.8720     0.5190    -4.9400 ca         1 FTL      -0.087000
     13 C55          3.2330    -0.3250    -3.9280 ca         1 FTL      -0.112000
     14 C56          2.2730    -0.7610    -2.9940 ca         1 FTL      -0.088000
     15 C65         -0.9960    -2.3720    -3.7400 cg         1 FTL       0.335000
     16 C7           1.1510     1.8600    -6.0880 ca         1 FTL      -0.098000
     17 N1          -1.0400    -2.8210    -4.8030 n1         1 FTL      -0.460000
     18 C2          -0.7580     1.0210    -4.2360 ca         1 FTL      -0.097000
     19 C3          -0.1390     2.3040    -6.1830 ca         1 FTL      -0.105000
     20 C4          -1.1010     1.8820    -5.2430 ca         1 FTL      -0.103000
     21 N3          -4.8680     0.6360     2.9130 nc         1 FTL      -0.669000
     22 C10         -3.9500    -0.0650     2.1910 cc         1 FTL       0.259900
     23 C12         -2.8040    -0.2520     2.9180 cd         1 FTL      -0.251300
     24 N4          -3.0440     0.3650     4.1210 na         1 FTL      -0.163500
     25 C5          -4.2920     0.8750     4.0630 cd         1 FTL       0.399400
     26 C15         -2.1440     0.4720     5.2480 c3         1 FTL       0.054900
     27 C16          1.9850    -0.4260     2.2190 ca         1 FTL      -0.077000
     28 C11          1.2130     0.7080     2.4570 ca         1 FTL      -0.115300
     29 C13          1.7030     1.6870     3.3100 ca         1 FTL      -0.076000
     30 C14          2.9550     1.5340     3.9030 ca         1 FTL      -0.015000
     31 C17          3.7280     0.4010     3.6580 ca         1 FTL      -0.070000
     32 C6           3.2310    -0.5770     2.8130 ca         1 FTL      -0.113000
     33 C9           3.4460     2.5500     4.7790 cg         1 FTL       0.319000
     34 N5           3.8440     3.3690     5.4840 n1         1 FTL      -0.446000
     35 C18         -1.5150    -0.9320     2.5770 c3         1 FTL       0.305100
     36 HC81        -0.0140     1.5280     0.9030 h1         1 FTL       0.065700
     37 HC82        -0.7730     1.5000     2.4540 h1         1 FTL       0.065700
     38 HC43        -2.5240    -2.1860     0.5390 ha         1 FTL       0.122000
     39 HC44        -2.5660    -3.0570    -1.7020 ha         1 FTL       0.124000
     40 HC47         0.7700     0.3860    -0.5690 ha         1 FTL       0.126000
     41 HC54         3.6050     0.8560    -5.6630 ha         1 FTL       0.115000
     42 HC55         4.2560    -0.6670    -3.8390 ha         1 FTL       0.115000
     43 HC56         2.5710    -1.4350    -2.2000 ha         1 FTL       0.115000
     44 HC7          1.8970     2.1860    -6.8020 ha         1 FTL       0.113000
     45 HC2         -1.5090     0.7150    -3.5180 ha         1 FTL       0.120000
     46 HC3         -0.4240     2.9820    -6.9770 ha         1 FTL       0.114000
     47 HC4         -2.1180     2.2450    -5.3180 ha         1 FTL       0.114000
     48 HC5         -4.7260     1.4120     4.8930 h5         1 FTL       0.056100
     49 H151        -1.8710    -0.5100     5.6270 h1         1 FTL       0.054700
     50 H152        -1.2400     1.0130     4.9750 h1         1 FTL       0.054700
     51 H153        -2.6410     1.0230     6.0410 h1         1 FTL       0.054700
     52 HC16         1.6150    -1.2090     1.5700 ha         1 FTL       0.129000
     53 HC13         1.1140     2.5710     3.5190 ha         1 FTL       0.124000
     54 HC17         4.6970     0.2870     4.1240 ha         1 FTL       0.129000
     55 HC6          3.8170    -1.4640     2.6160 ha         1 FTL       0.124000
     56 H181        -0.8450    -0.9240     3.4400 h1         1 FTL       0.061200
     57 H182        -1.6760    -1.9880     2.3670 h1         1 FTL       0.061200
     58 HC10        -4.1560    -0.3970     1.1850 h4         1 FTL       0.042100
@<TRIPOS>BOND
     1     1     2 1   
     2     1    28 1   
     3     1    36 1   
     4     1    37 1   
     5     2     3 1   
     6     2    35 1   
     7     3     4 ar  
     8     3     8 ar  
     9     4     5 ar  
    10     4    38 1   
    11     5     6 ar  
    12     5    39 1   
    13     6     7 ar  
    14     6    15 1   
    15     7     8 ar  
    16     7     9 1   
    17     8    40 1   
    18     9    10 ar  
    19     9    14 ar  
    20    10    11 ar  
    21    10    18 ar  
    22    11    12 ar  
    23    11    16 ar  
    24    12    13 ar  
    25    12    41 1   
    26    13    14 ar  
    27    13    42 1   
    28    14    43 1   
    29    15    17 3   
    30    16    19 ar  
    31    16    44 1   
    32    18    20 ar  
    33    18    45 1   
    34    19    20 ar  
    35    19    46 1   
    36    20    47 1   
    37    21    22 1   
    38    21    25 2   
    39    22    23 2   
    40    22    58 1   
    41    23    24 1   
    42    23    35 1   
    43    24    25 1   
    44    24    26 1   
    45    25    48 1   
    46    26    49 1   
    47    26    50 1   
    48    26    51 1   
    49    27    28 ar  
    50    27    32 ar  
    51    27    52 1   
    52    28    29 ar  
    53    29    30 ar  
    54    29    53 1   
    55    30    31 ar  
    56    30    33 1   
    57    31    32 ar  
    58    31    54 1   
    59    32    55 1   
    60    33    34 3   
    61    35    56 1   
    62    35    57 1   
@<TRIPOS>SUBSTRUCTURE
     1 FTL         1 TEMP              0 ****  ****    0 ROOT
