@<TRIPOS>MOLECULE
FTM
    9     8     1     0     0
SMALL
No Charge or Current Charge


@<TRIPOS>ATOM
      1 F           -1.8720    -0.0420    -0.0070 f          1 FTM      -0.235000
      2 C2          -0.7180    -0.7650    -0.0030 c3         1 FTM       0.102600
      3 C1           0.5540     0.1140    -0.0120 c          1 FTM       0.574100
      4 O            0.5460     1.3370    -0.0210 o          1 FTM      -0.568100
      5 N            1.7370    -0.5490    -0.0090 nt         1 FTM      -0.615000
      6 H1          -0.6990    -1.3970     0.8920 h1         1 FTM       0.055200
      7 H2          -0.7020    -1.4100    -0.8890 h1         1 FTM       0.055200
      8 H3           1.7550    -1.5590    -0.0020 hn         1 FTM       0.315500
      9 H4           2.5980    -0.0210    -0.0150 hn         1 FTM       0.315500
@<TRIPOS>BOND
     1     1     2 1   
     2     2     3 1   
     3     2     6 1   
     4     2     7 1   
     5     3     4 2   
     6     3     5 1   
     7     5     8 1   
     8     5     9 1   
@<TRIPOS>SUBSTRUCTURE
     1 FTM         1 TEMP              0 ****  ****    0 ROOT
