@<TRIPOS>MOLECULE
FTM
    9     8     1     0     0
SMALL
bcc


@<TRIPOS>ATOM
      1 F           -1.8120     0.0040    -0.0580 f          1 FTM      -0.216300
      2 C2          -0.6770    -0.7720     0.0030 c3         1 FTM       0.083900
      3 C1           0.5510     0.1250    -0.0030 c          1 FTM       0.641100
      4 O            0.4620     1.3390     0.0210 o          1 FTM      -0.568100
      5 N            1.7060    -0.5510    -0.0270 nt         1 FTM      -0.682000
      6 H1          -0.6990    -1.3700     0.9170 h1         1 FTM       0.055200
      7 H2          -0.6590    -1.4500    -0.8530 h1         1 FTM       0.055200
      8 H3           1.7420    -1.5560    -0.0520 hn         1 FTM       0.315500
      9 H4           2.5860    -0.0600    -0.0140 hn         1 FTM       0.315500
@<TRIPOS>BOND
     1     1     2 1   
     2     2     3 1   
     3     2     6 1   
     4     2     7 1   
     5     3     4 2   
     6     3     5 1   
     7     5     8 1   
     8     5     9 1   
@<TRIPOS>SUBSTRUCTURE
     1 FTM         1 TEMP              0 ****  ****    0 ROOT
