@<TRIPOS>MOLECULE
FTN
   39    40     1     0     0
SMALL
abcg2


@<TRIPOS>ATOM
      1 N           -0.2740    -1.1740     0.1620 ns         1 FTN      -0.137000
      2 F1          -4.0760     1.3770     2.4360 f          1 FTN      -0.107000
      3 O1          -0.7110     0.9680    -0.5010 o          1 FTN      -0.547100
      4 C2          -3.5050     0.1270     0.5250 ca         1 FTN      -0.154300
      5 F2          -2.9370     2.3820     0.9210 f          1 FTN      -0.107000
      6 O2           4.0240     0.8850    -0.0320 os         1 FTN      -0.350100
      7 C3          -2.5340    -0.5300    -0.2360 ca         1 FTN      -0.106600
      8 F3          -2.0020     0.8930     2.1700 f          1 FTN      -0.107000
      9 C4          -2.9240    -1.5280    -1.1220 ca         1 FTN      -0.099000
     10 C5          -4.2620    -1.8630    -1.2680 ca         1 FTN      -0.085000
     11 C6          -5.2210    -1.2060    -0.5170 ca         1 FTN      -0.101000
     12 C7          -4.8420    -0.2190     0.3830 ca         1 FTN      -0.067000
     13 C8          -1.0810    -0.1490    -0.1970 c          1 FTN       0.615700
     14 C9           1.1230    -1.2180     0.2520 ca         1 FTN       0.013000
     15 C10          1.9460    -0.1200     0.0420 ca         1 FTN      -0.174000
     16 C11          3.3330    -0.2520     0.1640 ca         1 FTN       0.181100
     17 C12          3.8970    -1.4840     0.4830 ca         1 FTN      -0.228000
     18 C13          3.0560    -2.5710     0.6900 ca         1 FTN      -0.045000
     19 C14          1.6850    -2.4560     0.5820 ca         1 FTN      -0.207000
     20 C15          5.4550     0.8880    -0.0180 c3         1 FTN       0.179300
     21 C16          6.0080     0.3470    -1.3260 c3         1 FTN      -0.107600
     22 C17          5.8720     2.3250     0.2260 c3         1 FTN      -0.107600
     23 HN          -0.7390    -2.0340     0.4120 hn         1 FTN       0.155000
     24 H4          -2.1790    -2.0370    -1.7200 ha         1 FTN       0.126000
     25 H5          -4.5490    -2.6360    -1.9680 ha         1 FTN       0.124000
     26 H6          -6.2670    -1.4620    -0.6190 ha         1 FTN       0.125000
     27 H7          -5.6040     0.2680     0.9750 ha         1 FTN       0.136000
     28 H10          1.5400     0.8460    -0.2100 ha         1 FTN       0.161000
     29 H12          4.9650    -1.6210     0.5740 ha         1 FTN       0.119000
     30 H13          3.4880    -3.5300     0.9430 ha         1 FTN       0.110000
     31 H14          1.0500    -3.3180     0.7490 ha         1 FTN       0.110000
     32 H15          5.8140     0.2770     0.8180 h1         1 FTN       0.041700
     33 H16          7.0980     0.3610    -1.3020 hc         1 FTN       0.047033
     34 H16A         5.6980    -0.6810    -1.5140 hc         1 FTN       0.047033
     35 H16B         5.6810     0.9620    -2.1660 hc         1 FTN       0.047033
     36 H17          5.4740     2.6980     1.1700 hc         1 FTN       0.047033
     37 H17A         6.9590     2.3910     0.2720 hc         1 FTN       0.047033
     38 H17B         5.5300     2.9780    -0.5790 hc         1 FTN       0.047033
     39 C1          -3.1280     1.1960     1.5100 c3         1 FTN       0.358300
@<TRIPOS>BOND
     1     1    13 1   
     2     1    14 1   
     3     1    23 1   
     4     2    39 1   
     5     3    13 2   
     6     4     7 ar  
     7     4    12 ar  
     8     4    39 1   
     9     5    39 1   
    10     6    16 1   
    11     6    20 1   
    12     7     9 ar  
    13     7    13 1   
    14     8    39 1   
    15     9    10 ar  
    16     9    24 1   
    17    10    11 ar  
    18    10    25 1   
    19    11    12 ar  
    20    11    26 1   
    21    12    27 1   
    22    14    15 ar  
    23    14    19 ar  
    24    15    16 ar  
    25    15    28 1   
    26    16    17 ar  
    27    17    18 ar  
    28    17    29 1   
    29    18    19 ar  
    30    18    30 1   
    31    19    31 1   
    32    20    21 1   
    33    20    22 1   
    34    20    32 1   
    35    21    33 1   
    36    21    34 1   
    37    21    35 1   
    38    22    36 1   
    39    22    37 1   
    40    22    38 1   
@<TRIPOS>SUBSTRUCTURE
     1 FTN         1 TEMP              0 ****  ****    0 ROOT
