@<TRIPOS>MOLECULE
FTN
   39    40     1     0     0
SMALL
No Charge or Current Charge


@<TRIPOS>ATOM
      1 N           -0.2410    -1.2270     0.0680 ns         1 FTN      -0.137000
      2 F1          -4.4220     2.1410     1.7590 f          1 FTN      -0.107000
      3 O1          -0.7470     0.9850    -0.2990 o          1 FTN      -0.547100
      4 C2          -3.6380     0.2970     0.4070 ca         1 FTN      -0.154300
      5 F2          -3.0380     2.6120     0.1660 f          1 FTN      -0.107000
      6 O2           4.1710     0.8450     0.2700 os         1 FTN      -0.350100
      7 C3          -2.5970    -0.5560    -0.0920 ca         1 FTN      -0.106600
      8 F3          -2.3460     1.5990     1.9720 f          1 FTN      -0.107000
      9 C4          -2.9530    -1.8210    -0.6280 ca         1 FTN      -0.099000
     10 C5          -4.2900    -2.2360    -0.6930 ca         1 FTN      -0.085000
     11 C6          -5.3040    -1.3960    -0.2250 ca         1 FTN      -0.101000
     12 C7          -4.9820    -0.1450     0.3180 ca         1 FTN      -0.067000
     13 C8          -1.1220    -0.1640    -0.0940 c          1 FTN       0.615700
     14 C9           1.1770    -1.3000     0.1150 ca         1 FTN       0.013000
     15 C10          2.0190    -0.1670     0.1660 ca         1 FTN      -0.174000
     16 C11          3.4150    -0.3100     0.2130 ca         1 FTN       0.181100
     17 C12          3.9850    -1.6000     0.2250 ca         1 FTN      -0.228000
     18 C13          3.1560    -2.7320     0.1810 ca         1 FTN      -0.045000
     19 C14          1.7610    -2.5790     0.1270 ca         1 FTN      -0.207000
     20 C15          5.6030     0.8680     0.1120 c3         1 FTN       0.179300
     21 C16          5.9400     0.6190    -1.3750 c3         1 FTN      -0.107600
     22 C17          6.0760     2.2550     0.5890 c3         1 FTN      -0.107600
     23 HN          -0.6960    -2.1210     0.1960 hn         1 FTN       0.155000
     24 H4          -2.1950    -2.4890    -1.0330 ha         1 FTN       0.126000
     25 H5          -4.5390    -3.2070    -1.1160 ha         1 FTN       0.124000
     26 H6          -6.3430    -1.7150    -0.2800 ha         1 FTN       0.125000
     27 H7          -5.7990     0.4780     0.6760 ha         1 FTN       0.136000
     28 H10          1.6140     0.8380     0.1780 ha         1 FTN       0.161000
     29 H12          5.0590    -1.7470     0.2750 ha         1 FTN       0.119000
     30 H13          3.5930    -3.7280     0.1920 ha         1 FTN       0.110000
     31 H14          1.1310    -3.4650     0.0940 ha         1 FTN       0.110000
     32 H15          6.0860     0.1110     0.7420 h1         1 FTN       0.041700
     33 H16          7.0220     0.6940    -1.5380 hc         1 FTN       0.047033
     34 H16A         5.6230    -0.3800    -1.6940 hc         1 FTN       0.047033
     35 H16B         5.4450     1.3580    -2.0150 hc         1 FTN       0.047033
     36 H17          5.8140     2.4080     1.6420 hc         1 FTN       0.047033
     37 H17A         7.1650     2.3420     0.4930 hc         1 FTN       0.047033
     38 H17B         5.6120     3.0520    -0.0040 hc         1 FTN       0.047033
     39 C1          -3.3570     1.6630     1.0740 c3         1 FTN       0.358300
@<TRIPOS>BOND
     1     1    13 1   
     2     1    14 1   
     3     1    23 1   
     4     2    39 1   
     5     3    13 2   
     6     4     7 ar  
     7     4    12 ar  
     8     4    39 1   
     9     5    39 1   
    10     6    16 1   
    11     6    20 1   
    12     7     9 ar  
    13     7    13 1   
    14     8    39 1   
    15     9    10 ar  
    16     9    24 1   
    17    10    11 ar  
    18    10    25 1   
    19    11    12 ar  
    20    11    26 1   
    21    12    27 1   
    22    14    15 ar  
    23    14    19 ar  
    24    15    16 ar  
    25    15    28 1   
    26    16    17 ar  
    27    17    18 ar  
    28    17    29 1   
    29    18    19 ar  
    30    18    30 1   
    31    19    31 1   
    32    20    21 1   
    33    20    22 1   
    34    20    32 1   
    35    21    33 1   
    36    21    34 1   
    37    21    35 1   
    38    22    36 1   
    39    22    37 1   
    40    22    38 1   
@<TRIPOS>SUBSTRUCTURE
     1 FTN         1 TEMP              0 ****  ****    0 ROOT
