@<TRIPOS>MOLECULE
FTO
  101   103     1     0     0
SMALL
bcc


@<TRIPOS>ATOM
      1 O47        163.0840   177.1120   153.4120 o          1 FTO      -0.590000
      2 C04        162.0540   176.5630   153.0760 c          1 FTO       0.774100
      3 O03        160.9710   177.1700   152.5870 os         1 FTO      -0.459900
      4 C02        160.8920   178.6040   152.3890 c3         1 FTO       0.202800
      5 C01        161.0480   179.3500   153.7080 c3         1 FTO      -0.109100
      6 C48        161.9040   179.0700   151.3490 c3         1 FTO      -0.109100
      7 C49        159.4780   178.7980   151.8540 c3         1 FTO      -0.109100
      8 N05        161.8420   175.2310   153.1290 ns         1 FTO      -0.573900
      9 C06        162.7660   174.2810   153.7010 c3         1 FTO       0.095700
     10 C07        163.2150   173.2890   152.6070 c3         1 FTO       0.138100
     11 O39        163.9760   172.2290   153.1430 oh         1 FTO      -0.596800
     12 C40        162.1160   173.5880   154.9080 c3         1 FTO      -0.051100
     13 C41        161.6870   174.5870   155.9450 ca         1 FTO      -0.081300
     14 C42        160.3890   175.0920   155.9660 ca         1 FTO      -0.118500
     15 C43        162.6010   175.0670   156.8800 ca         1 FTO      -0.118500
     16 C44        160.0120   176.0530   156.8960 ca         1 FTO      -0.125500
     17 C45        162.2300   176.0280   157.8120 ca         1 FTO      -0.125500
     18 C46        160.9340   176.5250   157.8220 ca         1 FTO      -0.126000
     19 C08        164.0770   174.0040   151.5750 c3         1 FTO      -0.064400
     20 C09        164.4360   173.1560   150.3550 c3         1 FTO      -0.126700
     21 C10        165.5050   173.8580   149.5360 c          1 FTO       0.670100
     22 O31        165.5230   175.0730   149.3890 o          1 FTO      -0.600100
     23 C32        163.2300   172.8110   149.4460 c3         1 FTO      -0.022100
     24 C33        162.5230   173.9900   148.8360 ca         1 FTO      -0.080300
     25 C34        162.8880   174.4690   147.5800 ca         1 FTO      -0.116500
     26 C35        161.4840   174.6320   149.5100 ca         1 FTO      -0.116500
     27 C36        162.2520   175.5690   147.0210 ca         1 FTO      -0.128500
     28 C37        160.8480   175.7360   148.9590 ca         1 FTO      -0.128500
     29 C38        161.2320   176.2120   147.7120 ca         1 FTO      -0.128000
     30 N11        166.4290   173.0560   148.9740 ns         1 FTO      -0.560900
     31 C12        167.4380   173.5670   148.0830 c3         1 FTO       0.039700
     32 C13        166.8450   173.8160   146.6960 c          1 FTO       0.658100
     33 O26        165.9170   173.1510   146.2600 o          1 FTO      -0.622100
     34 C27        168.6540   172.6330   148.0320 c3         1 FTO      -0.083400
     35 C28        168.4730   171.2760   147.3310 c3         1 FTO      -0.062700
     36 C30        168.8450   171.3420   145.8500 c3         1 FTO      -0.089100
     37 C29        169.3220   170.2160   148.0270 c3         1 FTO      -0.089100
     38 N14        167.4490   174.7860   145.9960 ns         1 FTO      -0.555900
     39 C15        167.0950   175.1180   144.6430 c3         1 FTO       0.035700
     40 C16        168.2640   175.8800   144.0220 c          1 FTO       0.666100
     41 O18        169.1510   176.3610   144.7090 o          1 FTO      -0.602100
     42 C19        165.7930   175.9470   144.5520 c3         1 FTO      -0.041100
     43 C20        165.8750   177.2670   145.2630 ca         1 FTO      -0.097300
     44 C22        166.2370   178.4270   144.5810 ca         1 FTO      -0.116500
     45 C21        165.6110   177.3510   146.6290 ca         1 FTO      -0.116500
     46 C24        166.3360   179.6420   145.2470 ca         1 FTO      -0.126500
     47 C23        165.7090   178.5640   147.2970 ca         1 FTO      -0.126500
     48 C25        166.0740   179.7130   146.6090 ca         1 FTO      -0.127000
     49 N17        168.2150   175.9930   142.6900 nt         1 FTO      -0.672000
     50 H1         162.0630   179.3020   154.0950 hc         1 FTO       0.049033
     51 H2         160.7970   180.4010   153.5570 hc         1 FTO       0.049033
     52 H3         160.3670   178.9540   154.4630 hc         1 FTO       0.049033
     53 H4         162.9290   178.9970   151.7050 hc         1 FTO       0.049033
     54 H5         161.8120   178.4910   150.4280 hc         1 FTO       0.049033
     55 H6         161.7100   180.1140   151.1030 hc         1 FTO       0.049033
     56 H7         159.3000   179.8540   151.6540 hc         1 FTO       0.049033
     57 H8         159.3270   178.2520   150.9210 hc         1 FTO       0.049033
     58 H9         158.7310   178.4620   152.5750 hc         1 FTO       0.049033
     59 H10        160.9280   174.8890   152.8710 hn         1 FTO       0.315500
     60 H11        163.6400   174.8360   154.0490 h1         1 FTO       0.100700
     61 H12        162.3040   172.9010   152.1280 h1         1 FTO       0.025700
     62 H13        163.3810   171.5720   153.5160 ho         1 FTO       0.402000
     63 H14        161.2550   173.0040   154.5690 hc         1 FTO       0.050700
     64 H15        162.8280   172.8880   155.3480 hc         1 FTO       0.050700
     65 H16        159.6620   174.7260   155.2510 ha         1 FTO       0.127000
     66 H17        163.6150   174.6840   156.8790 ha         1 FTO       0.127000
     67 H18        158.9980   176.4310   156.8980 ha         1 FTO       0.130000
     68 H19        162.9540   176.3860   158.5330 ha         1 FTO       0.130000
     69 H20        160.6420   177.2730   158.5480 ha         1 FTO       0.129000
     70 H21        164.9970   174.3210   152.0760 hc         1 FTO       0.076700
     71 H22        163.5740   174.9160   151.2540 hc         1 FTO       0.076700
     72 H23        164.8380   172.1990   150.7020 hc         1 FTO       0.062700
     73 H24        162.5230   172.2230   150.0340 hc         1 FTO       0.048700
     74 H25        163.5850   172.1490   148.6520 hc         1 FTO       0.048700
     75 H26        163.6810   173.9770   147.0300 ha         1 FTO       0.132500
     76 H27        161.1670   174.2600   150.4760 ha         1 FTO       0.132500
     77 H28        162.5550   175.9250   146.0440 ha         1 FTO       0.128500
     78 H29        160.0490   176.2230   149.5050 ha         1 FTO       0.128500
     79 H30        160.7360   177.0710   147.2790 ha         1 FTO       0.127000
     80 H31        166.3450   172.0580   149.0890 hn         1 FTO       0.322500
     81 H32        167.7850   174.5210   148.4870 h1         1 FTO       0.085700
     82 H33        168.9530   172.4770   149.0720 hc         1 FTO       0.055700
     83 H34        169.4810   173.1760   147.5660 hc         1 FTO       0.055700
     84 H35        167.4260   170.9610   147.4040 hc         1 FTO       0.054700
     85 H36        168.6910   170.3740   145.3700 hc         1 FTO       0.034367
     86 H37        168.2600   172.0740   145.2940 hc         1 FTO       0.034367
     87 H38        169.8980   171.6060   145.7350 hc         1 FTO       0.034367
     88 H39        169.0310   170.0980   149.0720 hc         1 FTO       0.034367
     89 H40        169.2220   169.2460   147.5390 hc         1 FTO       0.034367
     90 H41        170.3800   170.4900   148.0060 hc         1 FTO       0.034367
     91 H42        168.1930   175.3250   146.4160 hn         1 FTO       0.347500
     92 H43        166.9380   174.1950   144.0770 h1         1 FTO       0.072700
     93 H44        165.5500   176.0960   143.4980 hc         1 FTO       0.058700
     94 H45        164.9890   175.3420   144.9720 hc         1 FTO       0.058700
     95 H46        166.4380   178.3820   143.5170 ha         1 FTO       0.136500
     96 H47        165.3190   176.4630   147.1740 ha         1 FTO       0.136500
     97 H48        166.6150   180.5340   144.7000 ha         1 FTO       0.133000
     98 H49        165.4960   178.6110   148.3580 ha         1 FTO       0.133000
     99 H50        166.1480   180.6600   147.1280 ha         1 FTO       0.128000
    100 H51        168.9270   176.5090   142.1990 hn         1 FTO       0.317000
    101 H52        167.4990   175.5530   142.1380 hn         1 FTO       0.317000
@<TRIPOS>BOND
     1     1     2 2   
     2     2     3 1   
     3     2     8 1   
     4     3     4 1   
     5     4     5 1   
     6     4     6 1   
     7     4     7 1   
     8     5    50 1   
     9     5    51 1   
    10     5    52 1   
    11     6    53 1   
    12     6    54 1   
    13     6    55 1   
    14     7    56 1   
    15     7    57 1   
    16     7    58 1   
    17     8     9 1   
    18     8    59 1   
    19     9    10 1   
    20     9    12 1   
    21     9    60 1   
    22    10    11 1   
    23    10    19 1   
    24    10    61 1   
    25    11    62 1   
    26    12    13 1   
    27    12    63 1   
    28    12    64 1   
    29    13    14 ar  
    30    13    15 ar  
    31    14    16 ar  
    32    14    65 1   
    33    15    17 ar  
    34    15    66 1   
    35    16    18 ar  
    36    16    67 1   
    37    17    18 ar  
    38    17    68 1   
    39    18    69 1   
    40    19    20 1   
    41    19    70 1   
    42    19    71 1   
    43    20    21 1   
    44    20    23 1   
    45    20    72 1   
    46    21    22 2   
    47    21    30 1   
    48    23    24 1   
    49    23    73 1   
    50    23    74 1   
    51    24    25 ar  
    52    24    26 ar  
    53    25    27 ar  
    54    25    75 1   
    55    26    28 ar  
    56    26    76 1   
    57    27    29 ar  
    58    27    77 1   
    59    28    29 ar  
    60    28    78 1   
    61    29    79 1   
    62    30    31 1   
    63    30    80 1   
    64    31    32 1   
    65    31    34 1   
    66    31    81 1   
    67    32    33 2   
    68    32    38 1   
    69    34    35 1   
    70    34    82 1   
    71    34    83 1   
    72    35    36 1   
    73    35    37 1   
    74    35    84 1   
    75    36    85 1   
    76    36    86 1   
    77    36    87 1   
    78    37    88 1   
    79    37    89 1   
    80    37    90 1   
    81    38    39 1   
    82    38    91 1   
    83    39    40 1   
    84    39    42 1   
    85    39    92 1   
    86    40    41 2   
    87    40    49 1   
    88    42    43 1   
    89    42    93 1   
    90    42    94 1   
    91    43    44 ar  
    92    43    45 ar  
    93    44    46 ar  
    94    44    95 1   
    95    45    47 ar  
    96    45    96 1   
    97    46    48 ar  
    98    46    97 1   
    99    47    48 ar  
   100    47    98 1   
   101    48    99 1   
   102    49   100 1   
   103    49   101 1   
@<TRIPOS>SUBSTRUCTURE
     1 FTO         1 TEMP              0 ****  ****    0 ROOT
