@<TRIPOS>MOLECULE
FTO
  101   103     1     0     0
SMALL
No Charge or Current Charge


@<TRIPOS>ATOM
      1 O47        163.7030   176.1960   153.8880 o          1 FTO      -0.541000
      2 C04        162.4870   176.1230   153.8170 c          1 FTO       0.658100
      3 O03        161.5860   177.1420   153.9420 os         1 FTO      -0.483100
      4 C02        161.9910   178.5130   154.1580 c3         1 FTO       0.226000
      5 C01        162.7300   178.6290   155.5160 c3         1 FTO      -0.109100
      6 C48        162.8440   178.9980   152.9570 c3         1 FTO      -0.109100
      7 C49        160.6630   179.3000   154.2130 c3         1 FTO      -0.109100
      8 N05        161.7940   174.9870   153.5170 ns         1 FTO      -0.506900
      9 C06        162.3960   173.6740   153.2420 c3         1 FTO       0.095700
     10 C07        162.4490   173.3790   151.7060 c3         1 FTO       0.161300
     11 O39        163.0200   172.0840   151.4650 oh         1 FTO      -0.659000
     12 C40        161.6520   172.5860   154.0630 c3         1 FTO      -0.051100
     13 C41        161.5470   172.9290   155.5470 ca         1 FTO      -0.081300
     14 C42        160.2970   173.2300   156.1240 ca         1 FTO      -0.100500
     15 C43        162.7040   172.9580   156.3510 ca         1 FTO      -0.100500
     16 C44        160.2060   173.5580   157.4880 ca         1 FTO      -0.107500
     17 C45        162.6130   173.2860   157.7150 ca         1 FTO      -0.107500
     18 C46        161.3640   173.5870   158.2840 ca         1 FTO      -0.108000
     19 C08        163.2720   174.4290   150.9070 c3         1 FTO      -0.064400
     20 C09        163.1500   174.3270   149.3580 c3         1 FTO      -0.126700
     21 C10        164.2830   175.1190   148.6720 c          1 FTO       0.603100
     22 O31        164.4520   176.3190   148.8280 o          1 FTO      -0.600100
     23 C32        161.7440   174.6980   148.7930 c3         1 FTO      -0.022100
     24 C33        161.1700   176.0290   149.2820 ca         1 FTO      -0.080300
     25 C34        161.4650   177.2280   148.6020 ca         1 FTO      -0.098500
     26 C35        160.3130   176.0700   150.4020 ca         1 FTO      -0.098500
     27 C36        160.9340   178.4500   149.0500 ca         1 FTO      -0.110500
     28 C37        159.7840   177.2920   150.8510 ca         1 FTO      -0.110500
     29 C38        160.0950   178.4830   150.1760 ca         1 FTO      -0.110000
     30 N11        165.1190   174.3630   147.8800 ns         1 FTO      -0.493900
     31 C12        166.3170   174.8680   147.1740 c3         1 FTO       0.039700
     32 C13        166.7340   173.8860   146.0350 c          1 FTO       0.591100
     33 O26        166.1400   172.8390   145.8080 o          1 FTO      -0.622100
     34 C27        167.4700   175.2390   148.1600 c3         1 FTO      -0.083400
     35 C28        167.8640   174.1720   149.2260 c3         1 FTO      -0.062700
     36 C30        168.3890   172.8520   148.6150 c3         1 FTO      -0.089100
     37 C29        168.8950   174.7550   150.2200 c3         1 FTO      -0.089100
     38 N14        167.8250   174.2760   145.2870 ns         1 FTO      -0.488900
     39 C15        168.3690   173.5450   144.1200 c3         1 FTO       0.035700
     40 C16        169.8180   174.0300   143.8110 c          1 FTO       0.599100
     41 O18        170.3640   174.9480   144.4040 o          1 FTO      -0.602100
     42 C19        167.4260   173.6350   142.8870 c3         1 FTO      -0.041100
     43 C20        167.0020   175.0630   142.5540 ca         1 FTO      -0.097300
     44 C22        167.8300   175.8870   141.7660 ca         1 FTO      -0.098500
     45 C21        165.7790   175.5730   143.0360 ca         1 FTO      -0.098500
     46 C24        167.4430   177.2050   141.4690 ca         1 FTO      -0.108500
     47 C23        165.3930   176.8910   142.7390 ca         1 FTO      -0.108500
     48 C25        166.2250   177.7080   141.9560 ca         1 FTO      -0.109000
     49 N17        170.4840   173.3800   142.8280 nt         1 FTO      -0.605000
     50 H1         163.7340   178.1940   155.4760 hc         1 FTO       0.049033
     51 H2         162.8450   179.6820   155.7990 hc         1 FTO       0.049033
     52 H3         162.1660   178.1250   156.3100 hc         1 FTO       0.049033
     53 H4         163.8550   178.5770   152.9760 hc         1 FTO       0.049033
     54 H5         162.3730   178.7190   152.0070 hc         1 FTO       0.049033
     55 H6         162.9480   180.0890   152.9760 hc         1 FTO       0.049033
     56 H7         160.8490   180.3670   154.3850 hc         1 FTO       0.049033
     57 H8         160.1110   179.2010   153.2710 hc         1 FTO       0.049033
     58 H9         160.0240   178.9320   155.0240 hc         1 FTO       0.049033
     59 H10        160.7880   175.0830   153.4970 hn         1 FTO       0.315500
     60 H11        163.4340   173.6950   153.6010 h1         1 FTO       0.100700
     61 H12        161.4170   173.3930   151.3330 h1         1 FTO       0.025700
     62 H13        162.3260   171.4180   151.6630 ho         1 FTO       0.441000
     63 H14        160.6530   172.4400   153.6350 hc         1 FTO       0.050700
     64 H15        162.1740   171.6280   153.9560 hc         1 FTO       0.050700
     65 H16        159.3950   173.2150   155.5170 ha         1 FTO       0.109000
     66 H17        163.6750   172.7280   155.9190 ha         1 FTO       0.109000
     67 H18        159.2390   173.7910   157.9280 ha         1 FTO       0.112000
     68 H19        163.5100   173.3080   158.3290 ha         1 FTO       0.112000
     69 H20        161.2930   173.8410   159.3390 ha         1 FTO       0.111000
     70 H21        164.3260   174.3200   151.1910 hc         1 FTO       0.076700
     71 H22        162.9900   175.4440   151.2060 hc         1 FTO       0.076700
     72 H23        163.3060   173.2760   149.0870 hc         1 FTO       0.062700
     73 H24        161.0450   173.8910   149.0450 hc         1 FTO       0.048700
     74 H25        161.7950   174.6960   147.6960 hc         1 FTO       0.048700
     75 H26        162.1090   177.2140   147.7270 ha         1 FTO       0.114500
     76 H27        160.0540   175.1550   150.9280 ha         1 FTO       0.114500
     77 H28        161.1730   179.3710   148.5230 ha         1 FTO       0.110500
     78 H29        159.1310   177.3130   151.7200 ha         1 FTO       0.110500
     79 H30        159.6860   179.4290   150.5240 ha         1 FTO       0.109000
     80 H31        164.8940   173.3790   147.7840 hn         1 FTO       0.322500
     81 H32        166.0290   175.7910   146.6530 h1         1 FTO       0.085700
     82 H33        167.1620   176.1460   148.6950 hc         1 FTO       0.055700
     83 H34        168.3630   175.5320   147.5950 hc         1 FTO       0.055700
     84 H35        166.9690   173.9290   149.8120 hc         1 FTO       0.054700
     85 H36        168.7590   172.1820   149.4020 hc         1 FTO       0.034367
     86 H37        167.5930   172.3170   148.0860 hc         1 FTO       0.034367
     87 H38        169.2110   173.0420   147.9150 hc         1 FTO       0.034367
     88 H39        168.5040   175.6590   150.7020 hc         1 FTO       0.034367
     89 H40        169.1280   174.0290   151.0090 hc         1 FTO       0.034367
     90 H41        169.8290   175.0160   149.7070 hc         1 FTO       0.034367
     91 H42        168.2690   175.1510   145.5420 hn         1 FTO       0.347500
     92 H43        168.4630   172.4860   144.3960 h1         1 FTO       0.072700
     93 H44        167.8980   173.1660   142.0160 hc         1 FTO       0.058700
     94 H45        166.5340   173.0280   143.0880 hc         1 FTO       0.058700
     95 H46        168.7750   175.5080   141.3830 ha         1 FTO       0.118500
     96 H47        165.1270   174.9480   143.6430 ha         1 FTO       0.118500
     97 H48        168.0870   177.8360   140.8610 ha         1 FTO       0.115000
     98 H49        164.4480   177.2790   143.1150 ha         1 FTO       0.115000
     99 H50        165.9260   178.7290   141.7260 ha         1 FTO       0.110000
    100 H51        171.4260   173.6650   142.6020 hn         1 FTO       0.317000
    101 H52        170.0500   172.6120   142.3380 hn         1 FTO       0.317000
@<TRIPOS>BOND
     1     1     2 2   
     2     2     3 1   
     3     2     8 1   
     4     3     4 1   
     5     4     5 1   
     6     4     6 1   
     7     4     7 1   
     8     5    50 1   
     9     5    51 1   
    10     5    52 1   
    11     6    53 1   
    12     6    54 1   
    13     6    55 1   
    14     7    56 1   
    15     7    57 1   
    16     7    58 1   
    17     8     9 1   
    18     8    59 1   
    19     9    10 1   
    20     9    12 1   
    21     9    60 1   
    22    10    11 1   
    23    10    19 1   
    24    10    61 1   
    25    11    62 1   
    26    12    13 1   
    27    12    63 1   
    28    12    64 1   
    29    13    14 ar  
    30    13    15 ar  
    31    14    16 ar  
    32    14    65 1   
    33    15    17 ar  
    34    15    66 1   
    35    16    18 ar  
    36    16    67 1   
    37    17    18 ar  
    38    17    68 1   
    39    18    69 1   
    40    19    20 1   
    41    19    70 1   
    42    19    71 1   
    43    20    21 1   
    44    20    23 1   
    45    20    72 1   
    46    21    22 2   
    47    21    30 1   
    48    23    24 1   
    49    23    73 1   
    50    23    74 1   
    51    24    25 ar  
    52    24    26 ar  
    53    25    27 ar  
    54    25    75 1   
    55    26    28 ar  
    56    26    76 1   
    57    27    29 ar  
    58    27    77 1   
    59    28    29 ar  
    60    28    78 1   
    61    29    79 1   
    62    30    31 1   
    63    30    80 1   
    64    31    32 1   
    65    31    34 1   
    66    31    81 1   
    67    32    33 2   
    68    32    38 1   
    69    34    35 1   
    70    34    82 1   
    71    34    83 1   
    72    35    36 1   
    73    35    37 1   
    74    35    84 1   
    75    36    85 1   
    76    36    86 1   
    77    36    87 1   
    78    37    88 1   
    79    37    89 1   
    80    37    90 1   
    81    38    39 1   
    82    38    91 1   
    83    39    40 1   
    84    39    42 1   
    85    39    92 1   
    86    40    41 2   
    87    40    49 1   
    88    42    43 1   
    89    42    93 1   
    90    42    94 1   
    91    43    44 ar  
    92    43    45 ar  
    93    44    46 ar  
    94    44    95 1   
    95    45    47 ar  
    96    45    96 1   
    97    46    48 ar  
    98    46    97 1   
    99    47    48 ar  
   100    47    98 1   
   101    48    99 1   
   102    49   100 1   
   103    49   101 1   
@<TRIPOS>SUBSTRUCTURE
     1 FTO         1 TEMP              0 ****  ****    0 ROOT
