@<TRIPOS>MOLECULE
FTR
   26    27     1     0     0
SMALL
No Charge or Current Charge


@<TRIPOS>ATOM
      1 N           14.4150    21.9420    35.3450 n8         1 FTR      -0.893800
      2 CA          15.4930    22.6610    36.1240 c3         1 FTR       0.028500
      3 CB          16.8820    22.4260    35.4670 c3         1 FTR       0.005800
      4 CG          17.2810    20.9720    35.3820 cc         1 FTR      -0.092400
      5 CD2         17.6670    20.1180    36.4710 ca         1 FTR      -0.077800
      6 CE2         17.9450    18.8830    35.9540 ca         1 FTR      -0.071200
      7 CE3         17.7830    20.3890    37.8430 ca         1 FTR      -0.096000
      8 CD1         17.3550    20.1830    34.2370 cd         1 FTR      -0.124100
      9 NE1         17.7650    18.8740    34.5840 na         1 FTR      -0.185400
     10 CZ2         18.3560    17.8190    36.7710 ca         1 FTR      -0.138000
     11 CZ3         18.1930    19.3370    38.6860 ca         1 FTR       0.074900
     12 F           18.3170    19.5530    40.0140 f          1 FTR      -0.163900
     13 CH2         18.4780    18.0570    38.1580 ca         1 FTR      -0.160000
     14 C           15.2470    24.2050    36.4450 c          1 FTR       0.931600
     15 O           14.5850    24.4950    37.4380 o          1 FTR      -0.835300
     16 OXT         15.7210    25.0650    35.7060 o          1 FTR      -0.835300
     17 H           13.5510    21.9290    35.8990 hn         1 FTR       0.327300
     18 H2          14.6790    20.9560    35.2530 hn         1 FTR       0.327300
     19 HA          15.5250    22.1580    37.1000 h1         1 FTR      -0.003300
     20 HB2         16.8890    22.8710    34.4650 hc         1 FTR       0.056700
     21 HB3         17.6420    22.9660    36.0460 hc         1 FTR       0.056700
     22 HE3         17.5660    21.3740    38.2470 ha         1 FTR       0.168000
     23 HD1         17.1420    20.4560    33.2090 h4         1 FTR       0.163000
     24 HE1         17.9020    18.0910    33.9540 hn         1 FTR       0.285700
     25 HZ2         18.5740    16.8400    36.3500 ha         1 FTR       0.119000
     26 HH2         18.7950    17.2560    38.8220 ha         1 FTR       0.131000
@<TRIPOS>BOND
     1     1     2 1   
     2     1    17 1   
     3     1    18 1   
     4     2     3 1   
     5     2    14 1   
     6     2    19 1   
     7     3     4 1   
     8     3    20 1   
     9     3    21 1   
    10     4     5 1   
    11     4     8 2   
    12     5     6 ar  
    13     5     7 ar  
    14     6     9 1   
    15     6    10 ar  
    16     7    11 ar  
    17     7    22 1   
    18     8     9 1   
    19     8    23 1   
    20     9    24 1   
    21    10    13 ar  
    22    10    25 1   
    23    11    12 1   
    24    11    13 ar  
    25    13    26 1   
    26    14    15 1   
    27    14    16 1   
@<TRIPOS>SUBSTRUCTURE
     1 FTR         1 TEMP              0 ****  ****    0 ROOT
