@<TRIPOS>MOLECULE
FTR
   26    27     1     0     0
SMALL
bcc


@<TRIPOS>ATOM
      1 N           14.5040    21.9030    35.4240 n8         1 FTR      -0.893800
      2 CA          15.5240    22.6220    36.1700 c3         1 FTR       0.028500
      3 CB          16.8860    22.4330    35.4910 c3         1 FTR       0.005800
      4 CG          17.2840    20.9970    35.4010 cc         1 FTR      -0.092400
      5 CD2         17.7050    20.1580    36.4820 ca         1 FTR      -0.077800
      6 CE2         17.9210    18.8640    35.9560 ca         1 FTR      -0.071200
      7 CE3         17.9230    20.3920    37.8460 ca         1 FTR      -0.096000
      8 CD1         17.2610    20.1910    34.2960 cd         1 FTR      -0.124100
      9 NE1         17.6430    18.9190    34.6210 na         1 FTR      -0.185400
     10 CZ2         18.3440    17.8040    36.7540 ca         1 FTR      -0.138000
     11 CZ3         18.3400    19.3300    38.6100 ca         1 FTR       0.074900
     12 F           18.5570    19.5220    39.9300 f          1 FTR      -0.163900
     13 CH2         18.5530    18.0480    38.0980 ca         1 FTR      -0.160000
     14 C           15.1490    24.1190    36.3290 c          1 FTR       0.931600
     15 O           13.9540    24.4250    36.1430 o          1 FTR      -0.835300
     16 OXT         16.0680    24.8860    36.6780 o          1 FTR      -0.835300
     17 H           13.5970    22.2180    35.7380 hn         1 FTR       0.327300
     18 H2          14.5630    20.9130    35.6240 hn         1 FTR       0.327300
     19 HA          15.6260    22.2420    37.2020 h1         1 FTR      -0.003300
     20 HB2         16.8430    22.8630    34.4860 hc         1 FTR       0.056700
     21 HB3         17.6390    22.9960    36.0450 hc         1 FTR       0.056700
     22 HE3         17.7710    21.3690    38.2880 ha         1 FTR       0.168000
     23 HD1         16.9960    20.4390    33.2800 h4         1 FTR       0.163000
     24 HE1         17.7110    18.1510    33.9760 hn         1 FTR       0.285700
     25 HZ2         18.5050    16.8160    36.3430 ha         1 FTR       0.119000
     26 HH2         18.8800    17.2540    38.7570 ha         1 FTR       0.131000
@<TRIPOS>BOND
     1     1     2 1   
     2     1    17 1   
     3     1    18 1   
     4     2     3 1   
     5     2    14 1   
     6     2    19 1   
     7     3     4 1   
     8     3    20 1   
     9     3    21 1   
    10     4     5 1   
    11     4     8 2   
    12     5     6 ar  
    13     5     7 ar  
    14     6     9 1   
    15     6    10 ar  
    16     7    11 ar  
    17     7    22 1   
    18     8     9 1   
    19     8    23 1   
    20     9    24 1   
    21    10    13 ar  
    22    10    25 1   
    23    11    12 1   
    24    11    13 ar  
    25    13    26 1   
    26    14    15 1   
    27    14    16 1   
@<TRIPOS>SUBSTRUCTURE
     1 FTR         1 TEMP              0 ****  ****    0 ROOT
