@<TRIPOS>MOLECULE
FTS
   38    39     1     0     0
SMALL
abcg2


@<TRIPOS>ATOM
      1 C7          -1.2140    -1.3660    -0.5550 ca         1 FTS      -0.015000
      2 C8          -2.3640    -0.6310    -0.2950 ca         1 FTS      -0.095300
      3 C1          -3.4760    -0.6050    -1.3080 c6         1 FTS       0.204100
      4 N1          -4.7150    -0.1570    -0.7090 n7         1 FTS      -0.854400
      5 C2          -4.5520     1.1260    -0.0500 c6         1 FTS       0.137500
      6 C10         -5.8920     1.6810     0.3700 c3         1 FTS       0.179600
      7 F4          -6.6800     1.9360    -0.7520 f          1 FTS      -0.271000
      8 C3          -3.6890     0.9170     1.1870 c6         1 FTS      -0.037100
      9 C9          -2.4610     0.1030     0.8880 ca         1 FTS      -0.004300
     10 C4          -1.4080     0.0700     1.8000 ca         1 FTS      -0.131000
     11 C5          -0.2650    -0.6680     1.5540 ca         1 FTS      -0.014000
     12 C6          -0.1770    -1.3810     0.3640 ca         1 FTS      -0.316500
     13 S1           1.3030    -2.2720    -0.0170 sy         1 FTS       1.151600
     14 O1           1.9610    -2.6080     1.2350 o          1 FTS      -0.527000
     15 O2           0.9810    -3.3140    -0.9760 o          1 FTS      -0.527000
     16 N2           2.2990    -1.2230    -0.8100 n7         1 FTS      -0.864300
     17 C11          2.7480    -0.0210    -0.1170 c3         1 FTS       0.202800
     18 C12          3.9870     0.5100    -0.8280 c3         1 FTS      -0.155400
     19 C13          4.5340     1.7550    -0.1850 c3         1 FTS       0.301000
     20 F1           4.8850     1.5560     1.0950 f          1 FTS      -0.116000
     21 F2           5.6260     2.2010    -0.8210 f          1 FTS      -0.116000
     22 F3           3.6470     2.7620    -0.1850 f          1 FTS      -0.116000
     23 H7          -1.1450    -1.9330    -1.4760 ha         1 FTS       0.134000
     24 H11         -3.1550     0.0310    -2.1490 h1         1 FTS       0.046700
     25 H12         -3.6210    -1.6070    -1.7170 h1         1 FTS       0.046700
     26 HN1         -5.4180    -0.0910    -1.4330 hn         1 FTS       0.430000
     27 H2          -4.0580     1.8670    -0.7010 h1         1 FTS       0.039700
     28 H101        -6.4240     0.9650     1.0010 h1         1 FTS       0.054700
     29 H102        -5.7650     2.6170     0.9170 h1         1 FTS       0.054700
     30 H31         -3.3940     1.8790     1.6110 hc         1 FTS       0.063700
     31 H32         -4.2740     0.4020     1.9570 hc         1 FTS       0.063700
     32 H4          -1.4840     0.6350     2.7220 ha         1 FTS       0.120000
     33 H5           0.5360    -0.6840     2.2810 ha         1 FTS       0.137000
     34 HN2          1.9740    -1.0470    -1.7560 hn         1 FTS       0.478000
     35 H111         1.9630     0.7390    -0.0860 h1         1 FTS       0.065700
     36 H112         2.9960    -0.2900     0.9090 h1         1 FTS       0.065700
     37 H121         4.7680    -0.2530    -0.8270 hc         1 FTS       0.090700
     38 H122         3.7560     0.7420    -1.8700 hc         1 FTS       0.090700
@<TRIPOS>BOND
     1     1     2 ar  
     2     1    12 ar  
     3     1    23 1   
     4     2     3 1   
     5     2     9 ar  
     6     3     4 1   
     7     3    24 1   
     8     3    25 1   
     9     4     5 1   
    10     4    26 1   
    11     5     6 1   
    12     5     8 1   
    13     5    27 1   
    14     6     7 1   
    15     6    28 1   
    16     6    29 1   
    17     8     9 1   
    18     8    30 1   
    19     8    31 1   
    20     9    10 ar  
    21    10    11 ar  
    22    10    32 1   
    23    11    12 ar  
    24    11    33 1   
    25    12    13 1   
    26    13    14 2   
    27    13    15 2   
    28    13    16 1   
    29    16    17 1   
    30    16    34 1   
    31    17    18 1   
    32    17    35 1   
    33    17    36 1   
    34    18    19 1   
    35    18    37 1   
    36    18    38 1   
    37    19    20 1   
    38    19    21 1   
    39    19    22 1   
@<TRIPOS>SUBSTRUCTURE
     1 FTS         1 TEMP              0 ****  ****    0 ROOT
