@<TRIPOS>MOLECULE
FTS
   38    39     1     0     0
SMALL
No Charge or Current Charge


@<TRIPOS>ATOM
      1 C7          -0.9560    -1.3000    -0.5320 ca         1 FTS      -0.015000
      2 C8          -2.0800    -0.5070    -0.2300 ca         1 FTS      -0.095300
      3 C1          -3.0260    -0.0820    -1.3610 c6         1 FTS       0.204100
      4 N1          -4.3440     0.3680    -0.8560 n7         1 FTS      -0.854400
      5 C2          -4.2150     1.3880     0.2160 c6         1 FTS       0.137500
      6 C10         -5.5990     2.0160     0.5720 c3         1 FTS       0.179600
      7 F4          -6.1710     2.6220    -0.5020 f          1 FTS      -0.271000
      8 C3          -3.5310     0.7590     1.4570 c6         1 FTS      -0.037100
      9 C9          -2.3060    -0.0890     1.1020 ca         1 FTS      -0.004300
     10 C4          -1.4120    -0.4790     2.1160 ca         1 FTS      -0.131000
     11 C5          -0.2920    -1.2710     1.8140 ca         1 FTS      -0.014000
     12 C6          -0.0600    -1.6840     0.4880 ca         1 FTS      -0.316500
     13 S1           1.3900    -2.6810     0.1020 sy         1 FTS       1.151600
     14 O1           1.6900    -3.5490     1.2430 o          1 FTS      -0.527000
     15 O2           1.3140    -3.1780    -1.2730 o          1 FTS      -0.527000
     16 N2           2.5980    -1.5290     0.1000 n7         1 FTS      -0.864300
     17 C11          2.3300    -0.2450    -0.5670 c3         1 FTS       0.202800
     18 C12          3.6070     0.6140    -0.5380 c3         1 FTS      -0.155400
     19 C13          3.4290     2.0050    -1.1790 c3         1 FTS       0.301000
     20 F1           2.4790     2.7210    -0.5370 f          1 FTS      -0.116000
     21 F2           4.5850     2.7050    -1.1230 f          1 FTS      -0.116000
     22 F3           3.0700     1.9010    -2.4790 f          1 FTS      -0.116000
     23 H7          -0.7820    -1.6090    -1.5620 ha         1 FTS       0.134000
     24 H11         -2.5510     0.7350    -1.9240 h1         1 FTS       0.046700
     25 H12         -3.1700    -0.9220    -2.0570 h1         1 FTS       0.046700
     26 HN1         -4.8720     0.7750    -1.6390 hn         1 FTS       0.430000
     27 H2          -3.5740     2.2030    -0.1540 h1         1 FTS       0.039700
     28 H101        -6.2780     1.2340     0.9360 h1         1 FTS       0.054700
     29 H102        -5.4680     2.7630     1.3640 h1         1 FTS       0.054700
     30 H31         -3.2450     1.5540     2.1590 hc         1 FTS       0.063700
     31 H32         -4.2510     0.1230     1.9890 hc         1 FTS       0.063700
     32 H4          -1.5850    -0.1670     3.1430 ha         1 FTS       0.120000
     33 H5           0.3950    -1.5560     2.6110 ha         1 FTS       0.137000
     34 HN2          3.3260    -2.0280    -0.4090 hn         1 FTS       0.478000
     35 H111         2.0160    -0.3990    -1.6100 h1         1 FTS       0.065700
     36 H112         1.5280     0.3030    -0.0530 h1         1 FTS       0.065700
     37 H121         3.9280     0.7440     0.5020 hc         1 FTS       0.090700
     38 H122         4.4140     0.0870    -1.0590 hc         1 FTS       0.090700
@<TRIPOS>BOND
     1     1     2 ar  
     2     1    12 ar  
     3     1    23 1   
     4     2     3 1   
     5     2     9 ar  
     6     3     4 1   
     7     3    24 1   
     8     3    25 1   
     9     4     5 1   
    10     4    26 1   
    11     5     6 1   
    12     5     8 1   
    13     5    27 1   
    14     6     7 1   
    15     6    28 1   
    16     6    29 1   
    17     8     9 1   
    18     8    30 1   
    19     8    31 1   
    20     9    10 ar  
    21    10    11 ar  
    22    10    32 1   
    23    11    12 ar  
    24    11    33 1   
    25    12    13 1   
    26    13    14 2   
    27    13    15 2   
    28    13    16 1   
    29    16    17 1   
    30    16    34 1   
    31    17    18 1   
    32    17    35 1   
    33    17    36 1   
    34    18    19 1   
    35    18    37 1   
    36    18    38 1   
    37    19    20 1   
    38    19    21 1   
    39    19    22 1   
@<TRIPOS>SUBSTRUCTURE
     1 FTS         1 TEMP              0 ****  ****    0 ROOT
