@<TRIPOS>MOLECULE
FTT
   44    43     1     0     0
SMALL
abcg2


@<TRIPOS>ATOM
      1 C1           6.8580    -0.1410    -0.1580 c          1 FTT       0.725000
      2 C2           5.5130    -0.8410     0.0970 c3         1 FTT      -0.235400
      3 C3           4.3160     0.0870    -0.0700 c3         1 FTT       0.180300
      4 C4           2.9960    -0.6500     0.1300 c3         1 FTT      -0.112400
      5 C5           1.7590     0.2170    -0.0670 c3         1 FTT      -0.071400
      6 C6           0.4600    -0.5630     0.0870 c3         1 FTT      -0.075400
      7 C7          -0.7840     0.2960    -0.0970 c3         1 FTT      -0.074400
      8 C8          -2.0840    -0.4840     0.0570 c3         1 FTT      -0.074400
      9 C9          -3.3290     0.3750    -0.1200 c3         1 FTT      -0.074400
     10 C10         -4.6270    -0.4060     0.0360 c3         1 FTT      -0.074400
     11 C11         -5.8730     0.4530    -0.1320 c3         1 FTT      -0.074400
     12 C12         -7.1700    -0.3300     0.0290 c3         1 FTT      -0.075400
     13 C13         -8.4190     0.5290    -0.1250 c3         1 FTT      -0.075400
     14 C14         -9.7070    -0.2650     0.0450 c3         1 FTT      -0.088100
     15 O2           6.9570     0.4930    -1.2300 o          1 FTT      -0.737500
     16 O3           4.4260     1.2150     0.7850 oh         1 FTT      -0.655000
     17 O1           7.7500    -0.2750     0.7040 o          1 FTT      -0.737500
     18 H21          5.4130    -1.6670    -0.6160 hc         1 FTT       0.018200
     19 H22          5.4920    -1.2920     1.0950 hc         1 FTT       0.018200
     20 H3           4.3350     0.4960    -1.0840 h1         1 FTT       0.082700
     21 H41          2.9650    -1.4890    -0.5730 hc         1 FTT       0.028700
     22 H42          2.9770    -1.0980     1.1320 hc         1 FTT       0.028700
     23 H51          1.7690     1.0460     0.6470 hc         1 FTT       0.041200
     24 H52          1.7900     0.6740    -1.0640 hc         1 FTT       0.041200
     25 H61          0.4420    -1.3870    -0.6360 hc         1 FTT       0.030700
     26 H62          0.4340    -1.0320     1.0780 hc         1 FTT       0.030700
     27 H71         -0.7680     1.1180     0.6280 hc         1 FTT       0.036200
     28 H72         -0.7590     0.7660    -1.0860 hc         1 FTT       0.036200
     29 H81         -2.1020    -1.3030    -0.6710 hc         1 FTT       0.034700
     30 H82         -2.1070    -0.9580     1.0440 hc         1 FTT       0.034700
     31 H91         -3.3100     1.1950     0.6080 hc         1 FTT       0.036200
     32 H92         -3.3070     0.8490    -1.1080 hc         1 FTT       0.036200
     33 H101        -4.6480    -1.2230    -0.6940 hc         1 FTT       0.035700
     34 H102        -4.6460    -0.8830     1.0220 hc         1 FTT       0.035700
     35 H111        -5.8520     1.2710     0.5970 hc         1 FTT       0.036200
     36 H112        -5.8570     0.9290    -1.1190 hc         1 FTT       0.036200
     37 H121        -7.1970    -1.1430    -0.7050 hc         1 FTT       0.035700
     38 H122        -7.1820    -0.8120     1.0130 hc         1 FTT       0.035700
     39 H131        -8.3920     1.3420     0.6070 hc         1 FTT       0.035700
     40 H132        -8.4100     1.0080    -1.1090 hc         1 FTT       0.035700
     41 H141        -9.7850    -1.0580    -0.7020 hc         1 FTT       0.029367
     42 H142        -9.7510    -0.7370     1.0280 hc         1 FTT       0.029367
     43 H143       -10.5880     0.3700    -0.0560 hc         1 FTT       0.029367
     44 HO3          4.4370     0.8950     1.6940 ho         1 FTT       0.421000
@<TRIPOS>BOND
     1     1     2 1   
     2     1    15 1   
     3     1    17 1   
     4     2     3 1   
     5     2    18 1   
     6     2    19 1   
     7     3     4 1   
     8     3    16 1   
     9     3    20 1   
    10     4     5 1   
    11     4    21 1   
    12     4    22 1   
    13     5     6 1   
    14     5    23 1   
    15     5    24 1   
    16     6     7 1   
    17     6    25 1   
    18     6    26 1   
    19     7     8 1   
    20     7    27 1   
    21     7    28 1   
    22     8     9 1   
    23     8    29 1   
    24     8    30 1   
    25     9    10 1   
    26     9    31 1   
    27     9    32 1   
    28    10    11 1   
    29    10    33 1   
    30    10    34 1   
    31    11    12 1   
    32    11    35 1   
    33    11    36 1   
    34    12    13 1   
    35    12    37 1   
    36    12    38 1   
    37    13    14 1   
    38    13    39 1   
    39    13    40 1   
    40    14    41 1   
    41    14    42 1   
    42    14    43 1   
    43    16    44 1   
@<TRIPOS>SUBSTRUCTURE
     1 FTT         1 TEMP              0 ****  ****    0 ROOT
