@<TRIPOS>MOLECULE
FTT
   44    43     1     0     0
SMALL
No Charge or Current Charge


@<TRIPOS>ATOM
      1 C1           6.8880    -0.1030    -0.3850 c          1 FTT       0.725000
      2 C2           5.6170    -0.8430     0.0550 c3         1 FTT      -0.235400
      3 C3           4.3970     0.1010    -0.0090 c3         1 FTT       0.180300
      4 C4           3.0580    -0.6610     0.1710 c3         1 FTT      -0.112400
      5 C5           1.7970     0.2210    -0.0020 c3         1 FTT      -0.071400
      6 C6           0.4810    -0.5760     0.1310 c3         1 FTT      -0.075400
      7 C7          -0.7780     0.3010    -0.0420 c3         1 FTT      -0.074400
      8 C8          -2.0940    -0.4960     0.0910 c3         1 FTT      -0.074400
      9 C9          -3.3530     0.3810    -0.0830 c3         1 FTT      -0.074400
     10 C10         -4.6690    -0.4170     0.0510 c3         1 FTT      -0.074400
     11 C11         -5.9280     0.4610    -0.1230 c3         1 FTT      -0.074400
     12 C12         -7.2430    -0.3370     0.0100 c3         1 FTT      -0.075400
     13 C13         -8.5020     0.5400    -0.1630 c3         1 FTT      -0.075400
     14 C14         -9.8150    -0.2550    -0.0310 c3         1 FTT      -0.088100
     15 O2           7.1280    -0.0400    -1.5810 o          1 FTT      -0.737500
     16 O3           4.5140     1.0910     1.0160 oh         1 FTT      -0.655000
     17 O1           7.6020     0.3900     0.4750 o          1 FTT      -0.737500
     18 H21          5.3980    -1.6420    -0.6650 hc         1 FTT       0.018200
     19 H22          5.7020    -1.2000     1.0890 hc         1 FTT       0.018200
     20 H3           4.3810     0.5800    -1.0000 h1         1 FTT       0.082700
     21 H41          3.0130    -1.4730    -0.5650 hc         1 FTT       0.028700
     22 H42          3.0370    -1.1340     1.1610 hc         1 FTT       0.028700
     23 H51          1.8050     1.0230     0.7460 hc         1 FTT       0.041200
     24 H52          1.8280     0.7030    -0.9870 hc         1 FTT       0.041200
     25 H61          0.4670    -1.3770    -0.6180 hc         1 FTT       0.030700
     26 H62          0.4510    -1.0580     1.1170 hc         1 FTT       0.030700
     27 H71         -0.7650     1.1020     0.7080 hc         1 FTT       0.036200
     28 H72         -0.7480     0.7840    -1.0270 hc         1 FTT       0.036200
     29 H81         -2.1070    -1.2970    -0.6590 hc         1 FTT       0.034700
     30 H82         -2.1240    -0.9790     1.0760 hc         1 FTT       0.034700
     31 H91         -3.3400     1.1820     0.6670 hc         1 FTT       0.036200
     32 H92         -3.3220     0.8640    -1.0680 hc         1 FTT       0.036200
     33 H101        -4.6820    -1.2180    -0.6990 hc         1 FTT       0.035700
     34 H102        -4.6990    -0.8990     1.0360 hc         1 FTT       0.035700
     35 H111        -5.9150     1.2620     0.6270 hc         1 FTT       0.036200
     36 H112        -5.8970     0.9430    -1.1080 hc         1 FTT       0.036200
     37 H121        -7.2570    -1.1380    -0.7400 hc         1 FTT       0.035700
     38 H122        -7.2740    -0.8200     0.9950 hc         1 FTT       0.035700
     39 H131        -8.4940     1.3410     0.5860 hc         1 FTT       0.035700
     40 H132        -8.4770     1.0230    -1.1480 hc         1 FTT       0.035700
     41 H141        -9.8700    -1.0430    -0.7910 hc         1 FTT       0.029367
     42 H142        -9.8880    -0.7220     0.9590 hc         1 FTT       0.029367
     43 H143       -10.6790     0.4080    -0.1610 hc         1 FTT       0.029367
     44 HO3          4.7870     0.6160     1.8290 ho         1 FTT       0.421000
@<TRIPOS>BOND
     1     1     2 1   
     2     1    15 1   
     3     1    17 1   
     4     2     3 1   
     5     2    18 1   
     6     2    19 1   
     7     3     4 1   
     8     3    16 1   
     9     3    20 1   
    10     4     5 1   
    11     4    21 1   
    12     4    22 1   
    13     5     6 1   
    14     5    23 1   
    15     5    24 1   
    16     6     7 1   
    17     6    25 1   
    18     6    26 1   
    19     7     8 1   
    20     7    27 1   
    21     7    28 1   
    22     8     9 1   
    23     8    29 1   
    24     8    30 1   
    25     9    10 1   
    26     9    31 1   
    27     9    32 1   
    28    10    11 1   
    29    10    33 1   
    30    10    34 1   
    31    11    12 1   
    32    11    35 1   
    33    11    36 1   
    34    12    13 1   
    35    12    37 1   
    36    12    38 1   
    37    13    14 1   
    38    13    39 1   
    39    13    40 1   
    40    14    41 1   
    41    14    42 1   
    42    14    43 1   
    43    16    44 1   
@<TRIPOS>SUBSTRUCTURE
     1 FTT         1 TEMP              0 ****  ****    0 ROOT
