@<TRIPOS>MOLECULE
FTU
   33    35     1     0     0
SMALL
No Charge or Current Charge


@<TRIPOS>ATOM
      1 F            1.9630    -2.9170     0.9520 f          1 FTU      -0.160500
      2 C6           1.4250    -1.7040     0.7580 cc         1 FTU       0.130300
      3 C5           0.1150    -1.3430     0.9800 cd         1 FTU      -0.206100
      4 C7           2.1230    -0.5580     0.2870 ca         1 FTU      -0.296800
      5 C10          1.2220     0.4780     0.2270 ca         1 FTU       0.189500
      6 N3           1.6180     1.7000    -0.1830 nb         1 FTU      -0.228000
      7 C9           2.9230     1.8250    -0.5250 ca         1 FTU       0.190900
      8 N2           3.8660     0.8520    -0.4930 nb         1 FTU      -0.306000
      9 C8           3.4510    -0.3520    -0.0770 ca         1 FTU       0.449900
     10 N1           4.3870    -1.3290    -0.0390 nv         1 FTU      -1.069900
     11 N           -0.0370     0.0310     0.6400 na         1 FTU      -0.182400
     12 C4          -1.2680     0.8350     0.7360 c5         1 FTU       0.309300
     13 C3          -1.7500     1.5240    -0.6000 c5         1 FTU       0.136300
     14 O1          -1.5770     2.9450    -0.6270 oh         1 FTU      -0.670000
     15 C2          -3.2780     1.2100    -0.6190 c5         1 FTU       0.100300
     16 O2          -4.0110     2.2150     0.1150 oh         1 FTU      -0.685000
     17 O           -2.3780     0.0120     1.1870 os         1 FTU      -0.429000
     18 C1          -3.2920    -0.1840     0.0790 c5         1 FTU       0.129300
     19 C           -2.8380    -1.3640    -0.8410 c3         1 FTU       0.150600
     20 O3          -3.0210    -2.6320    -0.1880 oh         1 FTU      -0.697000
     21 H1          -0.7080    -1.9490     1.3440 h4         1 FTU       0.229000
     22 H2           3.2480     2.8080    -0.8590 h5         1 FTU       0.046100
     23 H3           4.0650    -2.2870     0.0600 hn         1 FTU       0.501500
     24 H4           5.2550    -1.1850    -0.5470 hn         1 FTU       0.501500
     25 H5          -1.0590     1.6000     1.4950 h2         1 FTU       0.131700
     26 H6          -1.2510     1.0640    -1.4640 h1         1 FTU       0.043700
     27 H7          -2.4580     3.2710    -0.3060 ho         1 FTU       0.510000
     28 H8          -3.6560     1.1430    -1.6490 h1         1 FTU       0.049700
     29 H9          -4.9580     1.9380     0.1360 ho         1 FTU       0.507000
     30 H10         -4.2890    -0.4240     0.4710 h1         1 FTU       0.084700
     31 H11         -3.4410    -1.3340    -1.7580 h1         1 FTU       0.018200
     32 H12         -1.7900    -1.2340    -1.1380 h1         1 FTU       0.018200
     33 H13         -2.7490    -3.3300    -0.8300 ho         1 FTU       0.505000
@<TRIPOS>BOND
     1     1     2 1   
     2     2     3 2   
     3     2     4 1   
     4     3    11 1   
     5     3    21 1   
     6     4     5 ar  
     7     4     9 ar  
     8     5     6 ar  
     9     5    11 1   
    10     6     7 ar  
    11     7     8 ar  
    12     7    22 1   
    13     8     9 ar  
    14     9    10 1   
    15    10    23 1   
    16    10    24 1   
    17    11    12 1   
    18    12    13 1   
    19    12    17 1   
    20    12    25 1   
    21    13    14 1   
    22    13    15 1   
    23    13    26 1   
    24    14    27 1   
    25    15    16 1   
    26    15    18 1   
    27    15    28 1   
    28    16    29 1   
    29    17    18 1   
    30    18    19 1   
    31    18    30 1   
    32    19    20 1   
    33    19    31 1   
    34    19    32 1   
    35    20    33 1   
@<TRIPOS>SUBSTRUCTURE
     1 FTU         1 TEMP              0 ****  ****    0 ROOT
