@<TRIPOS>MOLECULE
FTU
   33    35     1     0     0
SMALL
abcg2


@<TRIPOS>ATOM
      1 F            2.1690    -2.6940    -0.9950 f          1 FTU      -0.160500
      2 C6           1.6270    -1.5580    -0.5490 cc         1 FTU       0.130300
      3 C5           0.3050    -1.2620    -0.5350 cd         1 FTU      -0.206100
      4 C7           2.3490    -0.4670    -0.0020 ca         1 FTU      -0.296800
      5 C10          1.3840     0.4880     0.3380 ca         1 FTU       0.189500
      6 N3           1.6370     1.6730     0.8950 nb         1 FTU      -0.228000
      7 C9           2.9210     1.8750     1.1100 ca         1 FTU       0.190900
      8 N2           3.9420     1.0660     0.8350 nb         1 FTU      -0.306000
      9 C8           3.6880    -0.1190     0.2740 ca         1 FTU       0.449900
     10 N1           4.7170    -0.9300     0.0130 nv         1 FTU      -1.069900
     11 N            0.1590     0.0030     0.0080 na         1 FTU      -0.182400
     12 C4          -1.0870     0.6940     0.1940 c5         1 FTU       0.309300
     13 C3          -1.8490     0.9660    -1.1030 c5         1 FTU       0.136300
     14 O1          -1.3200     2.0900    -1.7300 oh         1 FTU      -0.670000
     15 C2          -3.2810     1.0750    -0.5840 c5         1 FTU       0.100300
     16 O2          -3.4390     2.3520    -0.0260 oh         1 FTU      -0.685000
     17 O           -1.9450    -0.0890     0.9800 os         1 FTU      -0.429000
     18 C1          -3.2830    -0.0300     0.4770 c5         1 FTU       0.129300
     19 C           -3.7190    -1.3710    -0.0750 c3         1 FTU       0.150600
     20 O3          -3.6380    -2.3270     0.9520 oh         1 FTU      -0.697000
     21 H1          -0.5390    -1.8550    -0.8470 h4         1 FTU       0.229000
     22 H2           3.1870     2.8220     1.5680 h5         1 FTU       0.046100
     23 H3           4.5990    -1.7870    -0.4980 hn         1 FTU       0.501500
     24 H4           5.6550    -0.5990     0.1570 hn         1 FTU       0.501500
     25 H5          -0.8370     1.6390     0.6880 h2         1 FTU       0.131700
     26 H6          -1.7910     0.0800    -1.7500 h1         1 FTU       0.043700
     27 H7          -1.6980     2.1580    -2.6120 ho         1 FTU       0.510000
     28 H8          -4.0230     0.8810    -1.3690 h1         1 FTU       0.049700
     29 H9          -4.3050     2.3950     0.3940 ho         1 FTU       0.507000
     30 H10         -3.9480     0.2350     1.3060 h1         1 FTU       0.084700
     31 H11         -4.7450    -1.2570    -0.4490 h1         1 FTU       0.018200
     32 H12         -3.1020    -1.6510    -0.9410 h1         1 FTU       0.018200
     33 H13         -3.9360    -3.1710     0.6000 ho         1 FTU       0.505000
@<TRIPOS>BOND
     1     1     2 1   
     2     2     3 2   
     3     2     4 1   
     4     3    11 1   
     5     3    21 1   
     6     4     5 ar  
     7     4     9 ar  
     8     5     6 ar  
     9     5    11 1   
    10     6     7 ar  
    11     7     8 ar  
    12     7    22 1   
    13     8     9 ar  
    14     9    10 1   
    15    10    23 1   
    16    10    24 1   
    17    11    12 1   
    18    12    13 1   
    19    12    17 1   
    20    12    25 1   
    21    13    14 1   
    22    13    15 1   
    23    13    26 1   
    24    14    27 1   
    25    15    16 1   
    26    15    18 1   
    27    15    28 1   
    28    16    29 1   
    29    17    18 1   
    30    18    19 1   
    31    18    30 1   
    32    19    20 1   
    33    19    31 1   
    34    19    32 1   
    35    20    33 1   
@<TRIPOS>SUBSTRUCTURE
     1 FTU         1 TEMP              0 ****  ****    0 ROOT
