@<TRIPOS>MOLECULE
FTV
   21    21     1     0     0
SMALL
abcg2


@<TRIPOS>ATOM
      1 CL1         -0.2290    -2.5490    -0.1750 cl         1 FTV      -0.182000
      2 C4          -0.8530    -0.9430    -0.0550 ca         1 FTV       0.058000
      3 C7          -2.2210    -0.7510    -0.0120 ca         1 FTV      -0.067000
      4 C9          -2.7170     0.5390     0.0880 ca         1 FTV       0.052000
      5 CL2         -4.4310     0.7890     0.1430 cl         1 FTV      -0.241000
      6 C8          -1.8560     1.6200     0.1430 ca         1 FTV      -0.064000
      7 C5          -0.4850     1.4130     0.0980 ca         1 FTV      -0.211000
      8 C2           0.0500     0.1290     0.0030 ca         1 FTV       0.200100
      9 O1           1.3450    -0.1790    -0.0220 os         1 FTV      -0.275100
     10 C1           2.3310     0.8520    -0.0790 c3         1 FTV       0.013300
     11 C3           2.4260     1.4230    -1.4860 c3         1 FTV      -0.099100
     12 C6           3.6860     0.2650     0.3770 c          1 FTV       0.732000
     13 O3           4.6100     1.1020     0.4010 o          1 FTV      -0.703000
     14 O2           3.7400    -0.9380     0.6660 o          1 FTV      -0.703000
     15 H1          -2.8880    -1.6010    -0.0570 ha         1 FTV       0.126000
     16 H2          -2.2400     2.6280     0.2210 ha         1 FTV       0.113000
     17 H3           0.1590     2.2790     0.1410 ha         1 FTV       0.129000
     18 H4           2.0720     1.6490     0.6290 h1         1 FTV       0.030700
     19 H5           2.7430     0.6550    -2.1940 hc         1 FTV       0.030700
     20 H6           1.4760     1.8290    -1.8350 hc         1 FTV       0.030700
     21 H7           3.1560     2.2290    -1.5090 hc         1 FTV       0.030700
@<TRIPOS>BOND
     1     1     2 1   
     2     2     3 ar  
     3     2     8 ar  
     4     3     4 ar  
     5     3    15 1   
     6     4     5 1   
     7     4     6 ar  
     8     6     7 ar  
     9     6    16 1   
    10     7     8 ar  
    11     7    17 1   
    12     8     9 1   
    13     9    10 1   
    14    10    11 1   
    15    10    12 1   
    16    10    18 1   
    17    11    19 1   
    18    11    20 1   
    19    11    21 1   
    20    12    13 1   
    21    12    14 1   
@<TRIPOS>SUBSTRUCTURE
     1 FTV         1 TEMP              0 ****  ****    0 ROOT
