@<TRIPOS>MOLECULE
FTV
   21    21     1     0     0
SMALL
No Charge or Current Charge


@<TRIPOS>ATOM
      1 Cl1         -0.2840    -2.6300    -0.2000 cl         1 FTV      -0.182000
      2 C4          -0.8830    -0.9760    -0.0590 ca         1 FTV       0.058000
      3 C7          -2.2720    -0.7550    -0.0620 ca         1 FTV      -0.067000
      4 C9          -2.7750     0.5500     0.0500 ca         1 FTV       0.052000
      5 Cl2         -4.5120     0.8240     0.0460 cl         1 FTV      -0.241000
      6 C8          -1.8940     1.6370     0.1670 ca         1 FTV      -0.064000
      7 C5          -0.5040     1.4230     0.1710 ca         1 FTV      -0.211000
      8 C2           0.0140     0.1110     0.0510 ca         1 FTV       0.200100
      9 O1           1.3740    -0.1550     0.0580 os         1 FTV      -0.275100
     10 C1           2.4010     0.8660    -0.0490 c3         1 FTV       0.013300
     11 C3           2.4040     1.3850    -1.5110 c3         1 FTV      -0.099100
     12 C6           3.8090     0.3220     0.3650 c          1 FTV       0.732000
     13 O3           4.7320     1.1240     0.4420 o          1 FTV      -0.703000
     14 O2           3.9390    -0.8640     0.6440 o          1 FTV      -0.703000
     15 H1          -2.9550    -1.5950    -0.1500 ha         1 FTV       0.126000
     16 H2          -2.2890     2.6470     0.2570 ha         1 FTV       0.113000
     17 H3           0.1520     2.2820     0.2690 ha         1 FTV       0.129000
     18 H4           2.1880     1.6970     0.6350 h1         1 FTV       0.030700
     19 H5           2.6570     0.5750    -2.2060 hc         1 FTV       0.030700
     20 H6           1.4280     1.7920    -1.7970 hc         1 FTV       0.030700
     21 H7           3.1460     2.1820    -1.6340 hc         1 FTV       0.030700
@<TRIPOS>BOND
     1     1     2 1   
     2     2     3 ar  
     3     2     8 ar  
     4     3     4 ar  
     5     3    15 1   
     6     4     5 1   
     7     4     6 ar  
     8     6     7 ar  
     9     6    16 1   
    10     7     8 ar  
    11     7    17 1   
    12     8     9 1   
    13     9    10 1   
    14    10    11 1   
    15    10    12 1   
    16    10    18 1   
    17    11    19 1   
    18    11    20 1   
    19    11    21 1   
    20    12    13 1   
    21    12    14 1   
@<TRIPOS>SUBSTRUCTURE
     1 FTV         1 TEMP              0 ****  ****    0 ROOT
