@<TRIPOS>MOLECULE
FTW
   85    90     1     0     0
SMALL
No Charge or Current Charge


@<TRIPOS>ATOM
      1 C8          -8.4330     1.0710     0.7350 ca         1 FTW      -0.101000
      2 C5          -5.8280     1.5570     1.6680 ca         1 FTW      -0.096000
      3 C6          -6.6810     0.6900     2.3730 ca         1 FTW      -0.107000
      4 N1          -3.0970     2.2820    -0.0890 ns         1 FTW      -0.496900
      5 N3          -0.6870    -1.0130    -0.8700 na         1 FTW       0.152800
      6 C4          -6.2680     2.1940     0.4830 ca         1 FTW      -0.020000
      7 C1          -1.7750     2.2270     0.2960 c          1 FTW       0.532600
      8 C3          -5.4280     3.0740    -0.2510 ca         1 FTW      -0.099300
      9 C7          -7.9820     0.4480     1.9090 ca         1 FTW      -0.107000
     10 C9          -7.5840     1.9400     0.0220 ca         1 FTW      -0.041000
     11 C10         -8.0540     2.5520    -1.1540 ca         1 FTW      -0.090000
     12 C11         -7.2210     3.4160    -1.8780 ca         1 FTW      -0.113000
     13 C12         -5.9170     3.6750    -1.4290 ca         1 FTW      -0.093000
     14 C13         -1.0960     0.9410    -0.1050 cc         1 FTW       0.205500
     15 N2          -1.6940    -0.0610    -0.7510 nd         1 FTW      -0.524800
     16 C15         -1.3210    -3.4100    -0.5220 c3         1 FTW       0.146800
     17 N4          -1.5230    -4.7110    -1.2190 n7         1 FTW      -0.879400
     18 C16         -1.8200    -5.9320    -0.4160 c3         1 FTW       0.196200
     19 C17         -0.6630    -6.1830     0.5900 c3         1 FTW      -0.099600
     20 C18         -3.1650    -5.7290     0.3340 c3         1 FTW      -0.099600
     21 C19         -1.9310    -7.1320    -1.4260 c3         1 FTW       0.166600
     22 O2          -2.2370    -8.3820    -0.7790 oh         1 FTW      -0.661000
     23 C20          0.5110    -0.5880    -0.2940 cd         1 FTW      -0.142300
     24 C21          0.2590     0.6540     0.1780 cc         1 FTW      -0.143300
     25 C22          1.2670     1.5150     0.9020 c6         1 FTW       0.253100
     26 N5           2.6530     0.9850     0.6880 n3         1 FTW      -0.733600
     27 C23          3.6580     1.7300     1.4830 c3         1 FTW       0.225100
     28 C24          5.1070     1.3670     1.1440 ca         1 FTW      -0.109300
     29 C25          5.8480     0.6390     2.0940 ca         1 FTW      -0.070000
     30 C26          7.1800     0.2810     1.8470 ca         1 FTW      -0.220000
     31 C27          7.8030     0.6480     0.6370 ca         1 FTW       0.159100
     32 O3           9.1190     0.3060     0.3700 os         1 FTW      -0.340100
     33 C28          9.9300    -0.4370     1.2970 c3         1 FTW       0.148900
     34 C29          7.0730     1.3810    -0.3300 ca         1 FTW      -0.061000
     35 C30          5.7230     1.7420    -0.0800 ca         1 FTW       0.011000
     36 C31          5.0140     2.4710    -1.0650 ca         1 FTW      -0.096000
     37 C32          5.6320     2.8380    -2.2710 ca         1 FTW      -0.103000
     38 C33          6.9650     2.4830    -2.5130 ca         1 FTW      -0.122000
     39 C34          7.6830     1.7580    -1.5490 ca         1 FTW      -0.080000
     40 C35          2.7290    -0.5020     0.8640 c6         1 FTW       0.174800
     41 C36          1.8530    -1.2630    -0.1720 c6         1 FTW      -0.008100
     42 H1          -9.4430     0.8770     0.3800 ha         1 FTW       0.112000
     43 H2          -4.8270     1.7180     2.0560 ha         1 FTW       0.125000
     44 H3          -6.3310     0.2060     3.2820 ha         1 FTW       0.114000
     45 H4          -3.4520     1.4730    -0.5870 hn         1 FTW       0.336500
     46 H5          -3.9770     3.6330     1.2560 h1         1 FTW       0.058200
     47 H6          -3.6350     4.2810    -0.3540 h1         1 FTW       0.058200
     48 H7          -8.6400    -0.2230     2.4560 ha         1 FTW       0.113000
     49 H8          -9.0640     2.3570    -1.5090 ha         1 FTW       0.113000
     50 H9          -7.5860     3.8870    -2.7880 ha         1 FTW       0.115000
     51 H10         -5.2830     4.3470    -2.0040 ha         1 FTW       0.114000
     52 H11         -1.7400    -2.1780    -2.2600 h1         1 FTW       0.071200
     53 H12         -0.0290    -2.6020    -2.0640 h1         1 FTW       0.071200
     54 H13         -0.5180    -3.4820     0.2220 h1         1 FTW       0.049200
     55 H14         -2.2350    -3.0970     0.0020 h1         1 FTW       0.049200
     56 H15         -2.2810    -4.5940    -1.9030 hn         1 FTW       0.408000
     57 H17         -0.6080    -5.3950     1.3490 hc         1 FTW       0.042700
     58 H18         -0.8060    -7.1300     1.1230 hc         1 FTW       0.042700
     59 H19          0.3020    -6.2310     0.0710 hc         1 FTW       0.042700
     60 H20         -3.9750    -5.4970    -0.3680 hc         1 FTW       0.042700
     61 H21         -3.4460    -6.6340     0.8850 hc         1 FTW       0.042700
     62 H22         -3.1000    -4.9150     1.0650 hc         1 FTW       0.042700
     63 H23         -2.7090    -6.9010    -2.1660 h1         1 FTW       0.024200
     64 H24         -0.9820    -7.2220    -1.9730 h1         1 FTW       0.024200
     65 H25         -2.2760    -9.0660    -1.4840 ho         1 FTW       0.445000
     66 H26          1.2120     2.5530     0.5410 h1         1 FTW       0.054200
     67 H27          1.0260     1.5320     1.9750 h1         1 FTW       0.054200
     68 H29          3.5310     2.8100     1.3290 h1         1 FTW       0.039700
     69 H30          3.4840     1.5530     2.5530 h1         1 FTW       0.039700
     70 H31          5.3860     0.3450     3.0340 ha         1 FTW       0.107000
     71 H32          7.7110    -0.2810     2.6090 ha         1 FTW       0.116000
     72 H33         10.0360     0.1050     2.2450 h1         1 FTW       0.041367
     73 H34          9.4890    -1.4220     1.5000 h1         1 FTW       0.041367
     74 H35         10.9330    -0.5940     0.8820 h1         1 FTW       0.041367
     75 H36          3.9780     2.7580    -0.9130 ha         1 FTW       0.132000
     76 H37          5.0740     3.3980    -3.0180 ha         1 FTW       0.112000
     77 H38          7.4430     2.7670    -3.4470 ha         1 FTW       0.111000
     78 H39          8.7160     1.4920    -1.7600 ha         1 FTW       0.124000
     79 H40          3.7640    -0.8610     0.7620 h1         1 FTW       0.039700
     80 H41          2.3970    -0.7730     1.8780 h1         1 FTW       0.039700
     81 H42          1.7490    -2.3140     0.1290 hc         1 FTW       0.060700
     82 H43          2.3610    -1.2610    -1.1460 hc         1 FTW       0.060700
     83 C2          -4.0010     3.3960     0.1840 c3         1 FTW       0.151300
     84 C14         -0.9370    -2.3050    -1.5260 c3         1 FTW       0.077600
     85 O1          -1.2540     3.1540     0.9060 o          1 FTW      -0.613100
@<TRIPOS>BOND
     1     1     9 ar  
     2     1    10 ar  
     3     1    42 1   
     4     2     3 ar  
     5     2     6 ar  
     6     2    43 1   
     7     3     9 ar  
     8     3    44 1   
     9     4     7 1   
    10     4    45 1   
    11     4    83 1   
    12     5    15 1   
    13     5    23 1   
    14     5    84 1   
    15     6     8 ar  
    16     6    10 ar  
    17     7    14 1   
    18     7    85 2   
    19     8    13 ar  
    20     8    83 1   
    21     9    48 1   
    22    10    11 ar  
    23    11    12 ar  
    24    11    49 1   
    25    12    13 ar  
    26    12    50 1   
    27    13    51 1   
    28    14    15 2   
    29    14    24 1   
    30    16    17 1   
    31    16    54 1   
    32    16    55 1   
    33    16    84 1   
    34    17    18 1   
    35    17    56 1   
    36    18    19 1   
    37    18    20 1   
    38    18    21 1   
    39    19    57 1   
    40    19    58 1   
    41    19    59 1   
    42    20    60 1   
    43    20    61 1   
    44    20    62 1   
    45    21    22 1   
    46    21    63 1   
    47    21    64 1   
    48    22    65 1   
    49    23    24 2   
    50    23    41 1   
    51    24    25 1   
    52    25    26 1   
    53    25    66 1   
    54    25    67 1   
    55    26    27 1   
    56    26    40 1   
    57    27    28 1   
    58    27    68 1   
    59    27    69 1   
    60    28    29 ar  
    61    28    35 ar  
    62    29    30 ar  
    63    29    70 1   
    64    30    31 ar  
    65    30    71 1   
    66    31    32 1   
    67    31    34 ar  
    68    32    33 1   
    69    33    72 1   
    70    33    73 1   
    71    33    74 1   
    72    34    35 ar  
    73    34    39 ar  
    74    35    36 ar  
    75    36    37 ar  
    76    36    75 1   
    77    37    38 ar  
    78    37    76 1   
    79    38    39 ar  
    80    38    77 1   
    81    39    78 1   
    82    40    41 1   
    83    40    79 1   
    84    40    80 1   
    85    41    81 1   
    86    41    82 1   
    87    46    83 1   
    88    47    83 1   
    89    52    84 1   
    90    53    84 1   
@<TRIPOS>SUBSTRUCTURE
     1 FTW         1 TEMP              0 ****  ****    0 ROOT
