@<TRIPOS>MOLECULE
FTW
   85    90     1     0     0
SMALL
abcg2


@<TRIPOS>ATOM
      1 C8          -7.9860     0.5540     0.7610 ca         1 FTW      -0.101000
      2 C5          -5.4440     1.3720     1.5610 ca         1 FTW      -0.096000
      3 C6          -6.1690     0.5070     2.3350 ca         1 FTW      -0.107000
      4 N1          -2.9170     2.1400    -0.2690 ns         1 FTW      -0.496900
      5 N3          -0.3780    -0.9840    -0.6820 na         1 FTW       0.152800
      6 C4          -5.9650     1.8710     0.3420 ca         1 FTW      -0.020000
      7 C1          -1.7270     2.1080     0.3510 c          1 FTW       0.532600
      8 C3          -5.2450     2.7760    -0.4910 ca         1 FTW      -0.099300
      9 C7          -7.4530     0.0880     1.9320 ca         1 FTW      -0.107000
     10 C9          -7.2630     1.4510    -0.0580 ca         1 FTW      -0.041000
     11 C10         -7.8120     1.9410    -1.2670 ca         1 FTW      -0.090000
     12 C11         -7.1060     2.8110    -2.0470 ca         1 FTW      -0.113000
     13 C12         -5.8170     3.2250    -1.6530 ca         1 FTW      -0.093000
     14 C13         -0.9010     0.9160     0.0760 cc         1 FTW       0.205500
     15 N2          -1.3670    -0.1070    -0.6280 nd         1 FTW      -0.524800
     16 C15         -1.3470    -3.2320    -0.4410 c3         1 FTW       0.146800
     17 N4          -1.5740    -4.4520    -1.1870 n7         1 FTW      -0.879400
     18 C16         -2.2580    -5.5470    -0.4900 c3         1 FTW       0.196200
     19 C17         -1.4540    -5.9630     0.7400 c3         1 FTW      -0.099600
     20 C18         -3.6890    -5.1810    -0.0820 c3         1 FTW      -0.099600
     21 C19         -2.2700    -6.6910    -1.5090 c3         1 FTW       0.166600
     22 O2          -2.9400    -7.8090    -0.9780 oh         1 FTW      -0.661000
     23 C20          0.7180    -0.5570    -0.0180 cd         1 FTW      -0.142300
     24 C21          0.4230     0.6860     0.4840 cc         1 FTW      -0.143300
     25 C22          1.4240     1.4860     1.2450 c6         1 FTW       0.253100
     26 N5           2.7460     0.9230     1.0250 n3         1 FTW      -0.733600
     27 C23          3.7570     1.6430     1.7780 c3         1 FTW       0.225100
     28 C24          5.1550     1.3380     1.3150 ca         1 FTW      -0.109300
     29 C25          6.0400     0.7150     2.1510 ca         1 FTW      -0.070000
     30 C26          7.3630     0.4110     1.7690 ca         1 FTW      -0.220000
     31 C27          7.8040     0.7470     0.5150 ca         1 FTW       0.159100
     32 O3           9.0400     0.5020     0.0500 os         1 FTW      -0.340100
     33 C28          9.9530    -0.1800     0.8850 c3         1 FTW       0.148900
     34 C29          6.9260     1.4080    -0.3980 ca         1 FTW      -0.061000
     35 C30          5.5950     1.6970     0.0060 ca         1 FTW       0.011000
     36 C31          4.7460     2.3540    -0.9170 ca         1 FTW      -0.096000
     37 C32          5.1900     2.7100    -2.1620 ca         1 FTW      -0.103000
     38 C33          6.5080     2.4190    -2.5570 ca         1 FTW      -0.122000
     39 C34          7.3570     1.7800    -1.6930 ca         1 FTW      -0.080000
     40 C35          2.7830    -0.5100     1.2520 c6         1 FTW       0.174800
     41 C36          2.0150    -1.2540     0.1610 c6         1 FTW      -0.008100
     42 H1          -8.9740     0.2400     0.4480 ha         1 FTW       0.112000
     43 H2          -4.4610     1.6760     1.8930 ha         1 FTW       0.125000
     44 H3          -5.7540     0.1390     3.2640 ha         1 FTW       0.114000
     45 H4          -3.1390     1.3980    -0.9150 hn         1 FTW       0.336500
     46 H5          -3.8290     3.5860     0.9110 h1         1 FTW       0.058200
     47 H6          -3.5730     4.0770    -0.7490 h1         1 FTW       0.058200
     48 H7          -8.0140    -0.5990     2.5510 ha         1 FTW       0.113000
     49 H8          -8.8030     1.6150    -1.5620 ha         1 FTW       0.113000
     50 H9          -7.5270     3.1860    -2.9700 ha         1 FTW       0.115000
     51 H10         -5.2660     3.9100    -2.2870 ha         1 FTW       0.114000
     52 H11         -1.1080    -2.0850    -2.2630 h1         1 FTW       0.071200
     53 H12          0.4010    -2.6740    -1.5790 h1         1 FTW       0.071200
     54 H13         -0.7480    -3.4480     0.4460 h1         1 FTW       0.049200
     55 H14         -2.2660    -2.7400    -0.0920 h1         1 FTW       0.049200
     56 H15         -2.1150    -4.2160    -2.0120 hn         1 FTW       0.408000
     57 H17         -1.4880    -5.2060     1.5240 hc         1 FTW       0.042700
     58 H18         -1.8560    -6.8820     1.1650 hc         1 FTW       0.042700
     59 H19         -0.4080    -6.1360     0.4810 hc         1 FTW       0.042700
     60 H20         -4.2790    -4.8860    -0.9530 hc         1 FTW       0.042700
     61 H21         -4.1980    -6.0150     0.3990 hc         1 FTW       0.042700
     62 H22         -3.6980    -4.3470     0.6230 hc         1 FTW       0.042700
     63 H23         -2.7600    -6.3380    -2.4290 h1         1 FTW       0.024200
     64 H24         -1.2310    -6.9280    -1.7710 h1         1 FTW       0.024200
     65 H25         -2.8420    -8.5370    -1.5980 ho         1 FTW       0.445000
     66 H26          1.4220     2.5250     0.9080 h1         1 FTW       0.054200
     67 H27          1.1540     1.5090     2.3150 h1         1 FTW       0.054200
     68 H29          3.5590     2.7140     1.6570 h1         1 FTW       0.039700
     69 H30          3.6850     1.4430     2.8590 h1         1 FTW       0.039700
     70 H31          5.7220     0.4340     3.1480 ha         1 FTW       0.107000
     71 H32          8.0040    -0.0910     2.4800 ha         1 FTW       0.116000
     72 H33         10.1710     0.3820     1.7960 h1         1 FTW       0.041367
     73 H34          9.5880    -1.1720     1.1610 h1         1 FTW       0.041367
     74 H35         10.8710    -0.2900     0.3140 h1         1 FTW       0.041367
     75 H36          3.7240     2.5640    -0.6390 ha         1 FTW       0.132000
     76 H37          4.5230     3.2150    -2.8490 ha         1 FTW       0.112000
     77 H38          6.8510     2.7010    -3.5430 ha         1 FTW       0.111000
     78 H39          8.3680     1.5620    -2.0070 ha         1 FTW       0.124000
     79 H40          3.8200    -0.8450     1.2440 h1         1 FTW       0.039700
     80 H41          2.3690    -0.7760     2.2400 h1         1 FTW       0.039700
     81 H42          1.8790    -2.2990     0.4510 hc         1 FTW       0.060700
     82 H43          2.5900    -1.2490    -0.7700 hc         1 FTW       0.060700
     83 C2          -3.8600     3.2290    -0.1200 c3         1 FTW       0.151300
     84 C14         -0.5760    -2.2620    -1.3270 c3         1 FTW       0.077600
     85 O1          -1.3300     2.9900     1.1030 o          1 FTW      -0.613100
@<TRIPOS>BOND
     1     1     9 ar  
     2     1    10 ar  
     3     1    42 1   
     4     2     3 ar  
     5     2     6 ar  
     6     2    43 1   
     7     3     9 ar  
     8     3    44 1   
     9     4     7 1   
    10     4    45 1   
    11     4    83 1   
    12     5    15 1   
    13     5    23 1   
    14     5    84 1   
    15     6     8 ar  
    16     6    10 ar  
    17     7    14 1   
    18     7    85 2   
    19     8    13 ar  
    20     8    83 1   
    21     9    48 1   
    22    10    11 ar  
    23    11    12 ar  
    24    11    49 1   
    25    12    13 ar  
    26    12    50 1   
    27    13    51 1   
    28    14    15 2   
    29    14    24 1   
    30    16    17 1   
    31    16    54 1   
    32    16    55 1   
    33    16    84 1   
    34    17    18 1   
    35    17    56 1   
    36    18    19 1   
    37    18    20 1   
    38    18    21 1   
    39    19    57 1   
    40    19    58 1   
    41    19    59 1   
    42    20    60 1   
    43    20    61 1   
    44    20    62 1   
    45    21    22 1   
    46    21    63 1   
    47    21    64 1   
    48    22    65 1   
    49    23    24 2   
    50    23    41 1   
    51    24    25 1   
    52    25    26 1   
    53    25    66 1   
    54    25    67 1   
    55    26    27 1   
    56    26    40 1   
    57    27    28 1   
    58    27    68 1   
    59    27    69 1   
    60    28    29 ar  
    61    28    35 ar  
    62    29    30 ar  
    63    29    70 1   
    64    30    31 ar  
    65    30    71 1   
    66    31    32 1   
    67    31    34 ar  
    68    32    33 1   
    69    33    72 1   
    70    33    73 1   
    71    33    74 1   
    72    34    35 ar  
    73    34    39 ar  
    74    35    36 ar  
    75    36    37 ar  
    76    36    75 1   
    77    37    38 ar  
    78    37    76 1   
    79    38    39 ar  
    80    38    77 1   
    81    39    78 1   
    82    40    41 1   
    83    40    79 1   
    84    40    80 1   
    85    41    81 1   
    86    41    82 1   
    87    46    83 1   
    88    47    83 1   
    89    52    84 1   
    90    53    84 1   
@<TRIPOS>SUBSTRUCTURE
     1 FTW         1 TEMP              0 ****  ****    0 ROOT
