@<TRIPOS>MOLECULE
FTX
   48    51     1     0     0
SMALL
bcc


@<TRIPOS>ATOM
      1 C4          25.0170    -3.8570    24.7590 ca         1 FTX      -0.182000
      2 C14         24.3110    -4.4090    29.1570 cc         1 FTX      -0.145400
      3 C5          24.3600    -2.9330    25.5810 ca         1 FTX      -0.094300
      4 C6          23.4590    -2.0430    25.0250 ca         1 FTX      -0.066300
      5 C11         26.2780    -5.7070    23.0610 c3         1 FTX       0.121700
      6 C7          24.6460    -2.9620    27.0680 c6         1 FTX       0.152000
      7 C8          22.8200    -1.3460    27.3420 c6         1 FTX       0.099000
      8 C9          22.7450    -1.0140    25.8620 c6         1 FTX      -0.052100
      9 C10         22.8280    -2.1820    20.8650 c3         1 FTX       0.121700
     10 C13         24.0210    -4.2110    27.7060 c3         1 FTX      -0.003200
     11 N1          24.1710    -1.7390    27.6890 n          1 FTX      -0.469800
     12 N2          25.2550    -4.3870    31.1930 na         1 FTX      -0.161400
     13 C3          24.7860    -3.9020    23.3990 ca         1 FTX       0.116100
     14 C1          23.2290    -2.0800    23.6440 ca         1 FTX      -0.189000
     15 C15         25.3390    -3.9160    29.9100 cd         1 FTX      -0.093100
     16 C16         24.1710    -5.1990    31.2980 ca         1 FTX      -0.045200
     17 C17         23.5430    -5.2440    30.0340 ca         1 FTX      -0.091800
     18 C18         23.6580    -5.9120    32.3770 ca         1 FTX       0.010400
     19 C19         22.5240    -6.6760    32.2000 ca         1 FTX      -0.102000
     20 C2          23.8740    -2.9890    22.8280 ca         1 FTX       0.118100
     21 C20         21.8980    -6.7260    30.9440 ca         1 FTX      -0.155000
     22 C21         22.3930    -6.0210    29.8650 ca         1 FTX      -0.079000
     23 O1          23.7070    -3.0890    21.4950 os         1 FTX      -0.295900
     24 O2          25.3680    -4.7610    22.5410 os         1 FTX      -0.296900
     25 O3          26.1920    -1.0220    28.4810 o          1 FTX      -0.614100
     26 CL1         24.4540    -5.8210    33.9130 cl         1 FTX      -0.120400
     27 H1          25.7250    -4.5390    25.2140 ha         1 FTX       0.140000
     28 H2          26.6190    -6.3050    22.2190 h1         1 FTX       0.040700
     29 H3          27.1450    -5.2290    23.5250 h1         1 FTX       0.040700
     30 H4          25.8080    -6.3670    23.7940 h1         1 FTX       0.040700
     31 H5          25.7280    -3.0000    27.2120 h1         1 FTX       0.087700
     32 H6          22.5300    -0.4880    27.9490 h1         1 FTX       0.056200
     33 H7          22.1310    -2.1550    27.5920 h1         1 FTX       0.056200
     34 H8          23.1910    -0.0290    25.6900 hc         1 FTX       0.055200
     35 H9          21.7000    -0.9350    25.5550 hc         1 FTX       0.055200
     36 H10         22.8440    -2.4210    19.8050 h1         1 FTX       0.039700
     37 H11         21.8030    -2.2810    21.2330 h1         1 FTX       0.039700
     38 H12         23.1480    -1.1440    20.9960 h1         1 FTX       0.039700
     39 H13         24.4690     0.0410    28.6150 h5         1 FTX       0.007200
     40 H14         22.9390    -4.1960    27.5490 hc         1 FTX       0.052200
     41 H15         24.3750    -5.0790    27.1410 hc         1 FTX       0.052200
     42 H16         25.8930    -4.1560    31.9350 hn         1 FTX       0.310700
     43 H17         22.5220    -1.3760    23.2240 ha         1 FTX       0.136000
     44 H18         26.1380    -3.2460    29.6360 h4         1 FTX       0.185000
     45 H19         22.1170    -7.2360    33.0300 ha         1 FTX       0.143000
     46 H20         21.0090    -7.3330    30.8320 ha         1 FTX       0.133000
     47 H21         21.8960    -6.0730    28.9040 ha         1 FTX       0.134000
     48 C12         24.9990    -0.8680    28.2870 c          1 FTX       0.675900
@<TRIPOS>BOND
     1     1     3 ar  
     2     1    13 ar  
     3     1    27 1   
     4     2    10 1   
     5     2    15 2   
     6     2    17 1   
     7     3     4 ar  
     8     3     6 1   
     9     4     8 1   
    10     4    14 ar  
    11     5    24 1   
    12     5    28 1   
    13     5    29 1   
    14     5    30 1   
    15     6    10 1   
    16     6    11 1   
    17     6    31 1   
    18     7     8 1   
    19     7    11 1   
    20     7    32 1   
    21     7    33 1   
    22     8    34 1   
    23     8    35 1   
    24     9    23 1   
    25     9    36 1   
    26     9    37 1   
    27     9    38 1   
    28    10    40 1   
    29    10    41 1   
    30    11    48 1   
    31    12    15 1   
    32    12    16 1   
    33    12    42 1   
    34    13    20 ar  
    35    13    24 1   
    36    14    20 ar  
    37    14    43 1   
    38    15    44 1   
    39    16    17 ar  
    40    16    18 ar  
    41    17    22 ar  
    42    18    19 ar  
    43    18    26 1   
    44    19    21 ar  
    45    19    45 1   
    46    20    23 1   
    47    21    22 ar  
    48    21    46 1   
    49    22    47 1   
    50    25    48 2   
    51    39    48 1   
@<TRIPOS>SUBSTRUCTURE
     1 FTX         1 TEMP              0 ****  ****    0 ROOT
