@<TRIPOS>MOLECULE
FTX
   48    51     1     0     0
SMALL
No Charge or Current Charge


@<TRIPOS>ATOM
      1 C4          25.1890    -3.7180    24.6740 ca         1 FTX      -0.164000
      2 C14         24.6180    -5.0500    28.9380 cc         1 FTX      -0.145400
      3 C5          24.2430    -3.1310    25.5390 ca         1 FTX      -0.094300
      4 C6          23.1660    -2.3970    24.9900 ca         1 FTX      -0.066300
      5 C11         27.1080    -4.9320    22.8620 c3         1 FTX       0.144900
      6 C7          24.4170    -3.2870    27.0670 c6         1 FTX       0.152000
      7 C8          22.1420    -2.2850    27.3200 c6         1 FTX       0.099000
      8 C9          22.1450    -1.7040    25.8970 c6         1 FTX      -0.052100
      9 C10         22.8090    -2.0390    20.7100 c3         1 FTX       0.144900
     10 C13         24.2540    -4.7770    27.4990 c3         1 FTX      -0.003200
     11 N1          23.5230    -2.3780    27.8330 n          1 FTX      -0.402800
     12 N2          25.8160    -5.5290    30.8370 na         1 FTX      -0.211700
     13 C3          25.0620    -3.5960    23.2720 ca         1 FTX       0.116100
     14 C1          23.0390    -2.2670    23.5950 ca         1 FTX      -0.171000
     15 C15         25.8720    -5.4060    29.4270 cd         1 FTX      -0.143100
     16 C16         24.5090    -5.2460    31.1930 ca         1 FTX      -0.045200
     17 C17         23.7580    -4.9600    30.0870 ca         1 FTX      -0.091800
     18 C18         23.9450    -5.2350    32.4800 ca         1 FTX       0.102000
     19 C19         22.5760    -4.9240    32.6090 ca         1 FTX      -0.084000
     20 C2          23.9790    -2.8680    22.7290 ca         1 FTX       0.118100
     21 C20         21.8000    -4.6370    31.4610 ca         1 FTX      -0.137000
     22 C21         22.3910    -4.6570    30.1800 ca         1 FTX      -0.061000
     23 O1          23.8760    -2.7590    21.3510 os         1 FTX      -0.319100
     24 O2          25.9770    -4.1700    22.4030 os         1 FTX      -0.320100
     25 O3          25.1330    -1.5690    29.2900 o          1 FTX      -0.614100
     26 Cl1         24.9170    -5.6010    33.9030 cl         1 FTX      -0.212000
     27 H1          26.0210    -4.2640    25.1090 ha         1 FTX       0.122000
     28 H2          27.6930    -5.2940    22.0070 h1         1 FTX       0.040700
     29 H3          27.7660    -4.3160    23.4880 h1         1 FTX       0.040700
     30 H4          26.7810    -5.8040    23.4430 h1         1 FTX       0.040700
     31 H5          25.4590    -3.0130    27.2880 h1         1 FTX       0.087700
     32 H6          21.5240    -1.6600    27.9800 h1         1 FTX       0.056200
     33 H7          21.6930    -3.2880    27.2980 h1         1 FTX       0.056200
     34 H8          22.3810    -0.6320    25.9440 hc         1 FTX       0.055200
     35 H9          21.1360    -1.7830    25.4690 hc         1 FTX       0.055200
     36 H10         22.9230    -2.0840    19.6190 h1         1 FTX       0.039700
     37 H11         21.8350    -2.4730    20.9680 h1         1 FTX       0.039700
     38 H12         22.8160    -0.9830    21.0080 h1         1 FTX       0.039700
     39 H13         23.1700    -0.9540    29.3350 h5         1 FTX       0.007200
     40 H14         23.2260    -5.1080    27.3120 hc         1 FTX       0.052200
     41 H15         24.8810    -5.4150    26.8650 hc         1 FTX       0.052200
     42 H16         26.5780    -5.7720    31.4640 hn         1 FTX       0.361000
     43 H17         22.2050    -1.6930    23.2020 ha         1 FTX       0.118000
     44 H18         26.7970    -5.5670    28.8780 h4         1 FTX       0.235000
     45 H19         22.1160    -4.9090    33.5940 ha         1 FTX       0.125000
     46 H20         20.7430    -4.4040    31.5650 ha         1 FTX       0.115000
     47 H21         21.8000    -4.4470    29.2940 ha         1 FTX       0.116000
     48 C12         23.9710    -1.5790    28.8980 c          1 FTX       0.608900
@<TRIPOS>BOND
     1     1     3 ar  
     2     1    13 ar  
     3     1    27 1   
     4     2    10 1   
     5     2    15 2   
     6     2    17 1   
     7     3     4 ar  
     8     3     6 1   
     9     4     8 1   
    10     4    14 ar  
    11     5    24 1   
    12     5    28 1   
    13     5    29 1   
    14     5    30 1   
    15     6    10 1   
    16     6    11 1   
    17     6    31 1   
    18     7     8 1   
    19     7    11 1   
    20     7    32 1   
    21     7    33 1   
    22     8    34 1   
    23     8    35 1   
    24     9    23 1   
    25     9    36 1   
    26     9    37 1   
    27     9    38 1   
    28    10    40 1   
    29    10    41 1   
    30    11    48 1   
    31    12    15 1   
    32    12    16 1   
    33    12    42 1   
    34    13    20 ar  
    35    13    24 1   
    36    14    20 ar  
    37    14    43 1   
    38    15    44 1   
    39    16    17 ar  
    40    16    18 ar  
    41    17    22 ar  
    42    18    19 ar  
    43    18    26 1   
    44    19    21 ar  
    45    19    45 1   
    46    20    23 1   
    47    21    22 ar  
    48    21    46 1   
    49    22    47 1   
    50    25    48 2   
    51    39    48 1   
@<TRIPOS>SUBSTRUCTURE
     1 FTX         1 TEMP              0 ****  ****    0 ROOT
