@<TRIPOS>MOLECULE
FTY
   28    28     1     0     0
SMALL
bcc


@<TRIPOS>ATOM
      1 N           41.5240     7.0900    23.6030 n8         1 FTY      -0.891800
      2 CA          41.4860     7.8160    22.3470 c3         1 FTY       0.035500
      3 C           40.2460     7.4090    21.5130 c          1 FTY       0.931600
      4 O           39.7810     6.2690    21.7140 o          1 FTY      -0.864300
      5 OXT         39.8480     8.2450    20.6780 o          1 FTY      -0.864300
      6 CB          42.7420     7.6250    21.4620 c3         1 FTY      -0.048100
      7 CG          44.0050     8.0640    22.1450 ca         1 FTY      -0.110300
      8 CD1         44.8420     7.1560    22.7880 ca         1 FTY      -0.159000
      9 CD2         44.3580     9.4130    22.2000 ca         1 FTY      -0.159000
     10 CE1         45.9860     7.5730    23.4560 ca         1 FTY      -0.101000
     11 CE2         45.4980     9.8350    22.8630 ca         1 FTY      -0.101000
     12 CZ          46.3360     8.9190    23.4980 ca         1 FTY      -0.062300
     13 C1          47.5510     9.3850    24.2400 c3         1 FTY       0.347700
     14 F1          48.4950     8.3740    24.2060 f          1 FTY      -0.292300
     15 F2          48.1370    10.4150    23.5200 f          1 FTY      -0.292300
     16 P           47.2540     9.9540    26.0300 p5         1 FTY       1.116700
     17 O1P         48.6640    10.2340    26.5450 o          1 FTY      -0.905833
     18 O2P         46.5630     8.7530    26.6700 o          1 FTY      -0.905833
     19 O3P         46.3770    11.1890    25.8380 o          1 FTY      -0.905833
     20 H           42.4380     7.1710    24.0310 hn         1 FTY       0.333800
     21 H2          41.3740     6.1080    23.4060 hn         1 FTY       0.333800
     22 HA          41.4090     8.8860    22.5690 h1         1 FTY       0.052700
     23 HB2         42.8190     6.5700    21.1840 hc         1 FTY       0.027200
     24 HB3         42.6080     8.1920    20.5380 hc         1 FTY       0.027200
     25 HD1         44.6010     6.0990    22.7590 ha         1 FTY       0.095500
     26 HD2         43.7290    10.1470    21.7080 ha         1 FTY       0.095500
     27 HE1         46.6070     6.8290    23.9370 ha         1 FTY       0.134500
     28 HE2         45.7360    10.8900    22.8800 ha         1 FTY       0.134500
@<TRIPOS>BOND
     1     1     2 1   
     2     1    20 1   
     3     1    21 1   
     4     2     3 1   
     5     2     6 1   
     6     2    22 1   
     7     3     4 1   
     8     3     5 1   
     9     6     7 1   
    10     6    23 1   
    11     6    24 1   
    12     7     8 ar  
    13     7     9 ar  
    14     8    10 ar  
    15     8    25 1   
    16     9    11 ar  
    17     9    26 1   
    18    10    12 ar  
    19    10    27 1   
    20    11    12 ar  
    21    11    28 1   
    22    12    13 1   
    23    13    14 1   
    24    13    15 1   
    25    13    16 1   
    26    16    17 1   
    27    16    18 1   
    28    16    19 1   
@<TRIPOS>SUBSTRUCTURE
     1 FTY         1 TEMP              0 ****  ****    0 ROOT
