@<TRIPOS>MOLECULE
FTY
   28    28     1     0     0
SMALL
No Charge or Current Charge


@<TRIPOS>ATOM
      1 N           41.4700     7.3340    23.6500 n8         1 FTY      -0.891800
      2 CA          41.4200     7.8420    22.2260 c3         1 FTY       0.035500
      3 C           40.1540     7.4410    21.3460 c          1 FTY       0.931600
      4 O           39.8570     6.2540    21.2300 o          1 FTY      -0.864300
      5 OXT         39.4510     8.3340    20.8790 o          1 FTY      -0.864300
      6 CB          42.7360     7.4780    21.4880 c3         1 FTY      -0.048100
      7 CG          43.9960     7.9830    22.1920 ca         1 FTY      -0.110300
      8 CD1         44.8760     7.0830    22.8200 ca         1 FTY      -0.159000
      9 CD2         44.2940     9.3580    22.2100 ca         1 FTY      -0.159000
     10 CE1         46.0390     7.5500    23.4570 ca         1 FTY      -0.101000
     11 CE2         45.4570     9.8270    22.8460 ca         1 FTY      -0.101000
     12 CZ          46.3480     8.9290    23.4730 ca         1 FTY      -0.062300
     13 C1          47.6300     9.4400    24.1590 c3         1 FTY       0.347700
     14 F1          48.6300     8.5170    24.0480 f          1 FTY      -0.292300
     15 F2          48.1090    10.5430    23.5120 f          1 FTY      -0.292300
     16 P           47.3550     9.8660    26.0320 p5         1 FTY       1.116700
     17 O1P         48.6230    10.3570    26.6600 o          1 FTY      -0.905833
     18 O2P         46.9030     8.6590    26.7950 o          1 FTY      -0.905833
     19 O3P         46.3190    10.9350    26.1930 o          1 FTY      -0.905833
     20 H           42.4060     7.5270    24.0220 hn         1 FTY       0.333800
     21 H2          41.4110     6.3110    23.6330 hn         1 FTY       0.333800
     22 HA          41.3940     8.9380    22.2940 h1         1 FTY       0.052700
     23 HB2         42.7840     6.3900    21.3550 hc         1 FTY       0.027200
     24 HB3         42.6960     7.9000    20.4770 hc         1 FTY       0.027200
     25 HD1         44.6610     6.0170    22.8160 ha         1 FTY       0.095500
     26 HD2         43.6240    10.0660    21.7280 ha         1 FTY       0.095500
     27 HE1         46.7040     6.8360    23.9390 ha         1 FTY       0.134500
     28 HE2         45.6650    10.8960    22.8500 ha         1 FTY       0.134500
@<TRIPOS>BOND
     1     1     2 1   
     2     1    20 1   
     3     1    21 1   
     4     2     3 1   
     5     2     6 1   
     6     2    22 1   
     7     3     4 1   
     8     3     5 1   
     9     6     7 1   
    10     6    23 1   
    11     6    24 1   
    12     7     8 ar  
    13     7     9 ar  
    14     8    10 ar  
    15     8    25 1   
    16     9    11 ar  
    17     9    26 1   
    18    10    12 ar  
    19    10    27 1   
    20    11    12 ar  
    21    11    28 1   
    22    12    13 1   
    23    13    14 1   
    24    13    15 1   
    25    13    16 1   
    26    16    17 1   
    27    16    18 1   
    28    16    19 1   
@<TRIPOS>SUBSTRUCTURE
     1 FTY         1 TEMP              0 ****  ****    0 ROOT
