@<TRIPOS>MOLECULE
FTZ
   30    32     1     0     0
SMALL
No Charge or Current Charge


@<TRIPOS>ATOM
      1 C24          5.4360     0.2990     0.5380 cc         1 FTZ      -0.148000
      2 C25          6.4820     0.3160    -0.4060 cc         1 FTZ      -0.197000
      3 C26          5.9160     0.0540    -1.6270 cd         1 FTZ       0.127900
      4 O27          4.5550    -0.1340    -1.5250 os         1 FTZ      -0.207000
      5 C7           4.3000     0.0250    -0.1780 cd         1 FTZ       0.096000
      6 C5           2.9760    -0.0870     0.4030 cd         1 FTZ       0.532000
      7 N6           1.8350    -0.3650    -0.3400 nd         1 FTZ      -0.735000
      8 N4           2.7540     0.0710     1.7100 nc         1 FTZ      -0.530800
      9 N3           1.4030    -0.1180     1.7840 na         1 FTZ      -0.240700
     10 C2           0.8940    -0.3720     0.5530 cc         1 FTZ       0.676400
     11 N1          -0.3940    -0.6100     0.2420 nu         1 FTZ      -0.907100
     12 C9          -1.5550    -0.4110     1.1120 c3         1 FTZ       0.266100
     13 C11         -2.8260    -0.3400     0.2770 ca         1 FTZ      -0.147300
     14 C15         -3.2350     0.8700    -0.3300 ca         1 FTZ       0.153000
     15 Cl1         -2.2870     2.3490    -0.1600 cl         1 FTZ      -0.187000
     16 C23         -4.4130     0.9210    -1.0940 ca         1 FTZ      -0.123000
     17 C16         -5.2000    -0.2300    -1.2630 ca         1 FTZ      -0.062000
     18 C17         -4.8030    -1.4360    -0.6630 ca         1 FTZ      -0.154000
     19 C14         -3.6260    -1.4890     0.1000 ca         1 FTZ       0.208000
     20 F18         -3.2690    -2.6650     0.6640 f          1 FTZ      -0.165000
     21 H1           5.5270     0.4690     1.6070 ha         1 FTZ       0.150000
     22 H2           7.5310     0.5030    -0.1960 ha         1 FTZ       0.141000
     23 H3           6.3610    -0.0240    -2.6110 h4         1 FTZ       0.053100
     24 H5          -0.5450    -0.6810    -0.7600 hn         1 FTZ       0.507000
     25 H6          -1.6250    -1.2350     1.8360 h1         1 FTZ       0.054700
     26 H7          -1.4430     0.5120     1.6970 h1         1 FTZ       0.054700
     27 H8          -4.7170     1.8560    -1.5570 ha         1 FTZ       0.139000
     28 H9          -6.1130    -0.1870    -1.8550 ha         1 FTZ       0.127000
     29 H10         -5.4050    -2.3320    -0.7880 ha         1 FTZ       0.142000
     30 H4           0.8760    -0.0760     2.6480 hn         1 FTZ       0.376000
@<TRIPOS>BOND
     1     1     2 1   
     2     1     5 2   
     3     1    21 1   
     4     2     3 2   
     5     2    22 1   
     6     3     4 1   
     7     3    23 1   
     8     4     5 1   
     9     5     6 1   
    10     6     7 1   
    11     6     8 2   
    12     7    10 2   
    13     8     9 1   
    14     9    10 1   
    15     9    30 1   
    16    10    11 1   
    17    11    12 1   
    18    11    24 1   
    19    12    13 1   
    20    12    25 1   
    21    12    26 1   
    22    13    14 ar  
    23    13    19 ar  
    24    14    15 1   
    25    14    16 ar  
    26    16    17 ar  
    27    16    27 1   
    28    17    18 ar  
    29    17    28 1   
    30    18    19 ar  
    31    18    29 1   
    32    19    20 1   
@<TRIPOS>SUBSTRUCTURE
     1 FTZ         1 TEMP              0 ****  ****    0 ROOT
