@<TRIPOS>MOLECULE
FTZ
   30    32     1     0     0
SMALL
bcc


@<TRIPOS>ATOM
      1 C24          5.5260    -0.1140     0.6920 cc         1 FTZ      -0.231300
      2 C25          6.5600    -0.0210    -0.2820 cc         1 FTZ      -0.280300
      3 C26          5.9380     0.0650    -1.4820 cd         1 FTZ       0.237600
      4 O27          4.6010     0.0310    -1.3190 os         1 FTZ      -0.295800
      5 C7           4.3550    -0.0780     0.0020 cd         1 FTZ       0.205700
      6 C5           2.9710    -0.1340     0.4190 cd         1 FTZ       0.532000
      7 N6           1.9360    -0.0230    -0.4460 nd         1 FTZ      -0.735000
      8 N4           2.6340    -0.2970     1.6750 nc         1 FTZ      -0.530800
      9 N3           1.2870    -0.2840     1.6120 na         1 FTZ      -0.190400
     10 C2           0.8830    -0.1270     0.3430 cc         1 FTZ       0.676400
     11 N1          -0.4080    -0.1200    -0.0620 nu         1 FTZ      -0.851900
     12 C9          -1.4830     0.0670     0.8950 c3         1 FTZ       0.266100
     13 C11         -2.8070    -0.1190     0.2120 ca         1 FTZ      -0.147300
     14 C15         -3.5500     0.9320    -0.3230 ca         1 FTZ       0.061400
     15 CL1         -2.9440     2.5510    -0.2170 cl         1 FTZ      -0.095400
     16 C23         -4.7680     0.7320    -0.9560 ca         1 FTZ      -0.141000
     17 C16         -5.2630    -0.5570    -1.0740 ca         1 FTZ      -0.080000
     18 C17         -4.5510    -1.6360    -0.5720 ca         1 FTZ      -0.172000
     19 C14         -3.3450    -1.3900     0.0500 ca         1 FTZ       0.172900
     20 F18         -2.6530    -2.4310     0.5320 f          1 FTZ      -0.129900
     21 H1           5.6360    -0.1940     1.7620 ha         1 FTZ       0.168000
     22 H2           7.6240    -0.0170    -0.1090 ha         1 FTZ       0.159000
     23 H3           6.2990     0.1500    -2.4940 h4         1 FTZ       0.053100
     24 H5          -0.5460     0.2890    -0.9740 hn         1 FTZ       0.451800
     25 H6          -1.3850    -0.6740     1.6890 h1         1 FTZ       0.054700
     26 H7          -1.4410     1.0480     1.3750 h1         1 FTZ       0.054700
     27 H8          -5.3200     1.5710    -1.3530 ha         1 FTZ       0.157000
     28 H9          -6.2110    -0.7230    -1.5660 ha         1 FTZ       0.145000
     29 H10         -4.9240    -2.6470    -0.6620 ha         1 FTZ       0.160000
     30 H4           0.7400    -0.3950     2.4520 hn         1 FTZ       0.325700
@<TRIPOS>BOND
     1     1     2 1   
     2     1     5 2   
     3     1    21 1   
     4     2     3 2   
     5     2    22 1   
     6     3     4 1   
     7     3    23 1   
     8     4     5 1   
     9     5     6 1   
    10     6     7 1   
    11     6     8 2   
    12     7    10 2   
    13     8     9 1   
    14     9    10 1   
    15     9    30 1   
    16    10    11 1   
    17    11    12 1   
    18    11    24 1   
    19    12    13 1   
    20    12    25 1   
    21    12    26 1   
    22    13    14 ar  
    23    13    19 ar  
    24    14    15 1   
    25    14    16 ar  
    26    16    17 ar  
    27    16    27 1   
    28    17    18 ar  
    29    17    28 1   
    30    18    19 ar  
    31    18    29 1   
    32    19    20 1   
@<TRIPOS>SUBSTRUCTURE
     1 FTZ         1 TEMP              0 ****  ****    0 ROOT
