@<TRIPOS>MOLECULE
FU0
   18    18     1     0     0
SMALL
abcg2


@<TRIPOS>ATOM
      1 C           -3.0830    -0.1960     0.1660 c          1 FU0       0.825100
      2 C1           0.3850     1.0070    -0.0880 c3         1 FU0      -0.128700
      3 OXT         -4.1180     0.4770     0.2030 o          1 FU0      -0.720000
      4 C2           1.7520     0.4340    -0.1720 cc         1 FU0       0.171300
      5 O2          -1.9410     0.5860     0.0290 os         1 FU0      -0.550100
      6 C3           2.6390     0.3220    -1.1920 cd         1 FU0      -0.216000
      7 C4           3.7840    -0.3510    -0.6640 cd         1 FU0      -0.192000
      8 C5           3.5030    -0.5970     0.6360 cc         1 FU0       0.096900
      9 C6          -0.6940    -0.0690    -0.0010 c3         1 FU0       0.209600
     10 O41          2.2740    -0.1270     0.9440 os         1 FU0      -0.236000
     11 O1          -2.9310    -1.4220     0.2320 o          1 FU0      -0.720000
     12 H5           4.0540    -1.0690     1.4320 h4         1 FU0       0.038100
     13 H1          -0.6070    -0.7370    -0.8660 h1         1 FU0       0.021200
     14 H1'A        -0.5400    -0.6800     0.8940 h1         1 FU0       0.021200
     15 H2           0.3080     1.6780     0.7730 hc         1 FU0       0.059700
     16 H1A          0.2250     1.6140    -0.9810 hc         1 FU0       0.059700
     17 H3           2.4940     0.6750    -2.2000 ha         1 FU0       0.134000
     18 H4           4.6900    -0.6150    -1.1840 ha         1 FU0       0.125000
@<TRIPOS>BOND
     1     1     3 1   
     2     1     5 1   
     3     1    11 1   
     4     2     4 1   
     5     2     9 1   
     6     2    15 1   
     7     2    16 1   
     8     4     6 2   
     9     4    10 1   
    10     5     9 1   
    11     6     7 1   
    12     6    17 1   
    13     7     8 2   
    14     7    18 1   
    15     8    10 1   
    16     8    12 1   
    17     9    13 1   
    18     9    14 1   
@<TRIPOS>SUBSTRUCTURE
     1 FU0         1 TEMP              0 ****  ****    0 ROOT
