@<TRIPOS>MOLECULE
FU0
   18    18     1     0     0
SMALL
No Charge or Current Charge


@<TRIPOS>ATOM
      1 C           -3.1140    -0.1600     0.1450 c          1 FU0       0.825100
      2 C1           0.3860     0.9970    -0.0970 c3         1 FU0      -0.128700
      3 OXT         -4.1690     0.4470     0.1670 o          1 FU0      -0.720000
      4 C2           1.7650     0.4090    -0.1530 cc         1 FU0       0.171300
      5 O2          -1.9780     0.5890     0.0480 os         1 FU0      -0.550100
      6 C3           2.6600     0.3140    -1.1820 cd         1 FU0      -0.216000
      7 C4           3.8050    -0.3310    -0.6730 cd         1 FU0      -0.192000
      8 C5           3.5630    -0.6020     0.6460 cc         1 FU0       0.096900
      9 C6          -0.7050    -0.0810     0.0180 c3         1 FU0       0.209600
     10 O41          2.3070    -0.1490     0.9840 os         1 FU0      -0.236000
     11 O1          -3.0410    -1.3770     0.2050 o          1 FU0      -0.720000
     12 H5           4.1570    -1.0790     1.4140 h4         1 FU0       0.038100
     13 H1          -0.6380    -0.7580    -0.8450 h1         1 FU0       0.021200
     14 H1'A        -0.5470    -0.6630     0.9360 h1         1 FU0       0.021200
     15 H2           0.3140     1.6770     0.7600 hc         1 FU0       0.059700
     16 H1A          0.2070     1.5960    -0.9970 hc         1 FU0       0.059700
     17 H3           2.5080     0.6700    -2.1960 ha         1 FU0       0.134000
     18 H4           4.7130    -0.5710    -1.2180 ha         1 FU0       0.125000
@<TRIPOS>BOND
     1     1     3 1   
     2     1     5 1   
     3     1    11 1   
     4     2     4 1   
     5     2     9 1   
     6     2    15 1   
     7     2    16 1   
     8     4     6 2   
     9     4    10 1   
    10     5     9 1   
    11     6     7 1   
    12     6    17 1   
    13     7     8 2   
    14     7    18 1   
    15     8    10 1   
    16     8    12 1   
    17     9    13 1   
    18     9    14 1   
@<TRIPOS>SUBSTRUCTURE
     1 FU0         1 TEMP              0 ****  ****    0 ROOT
