@<TRIPOS>MOLECULE
FU1
   13    13     1     0     0
SMALL
abcg2


@<TRIPOS>ATOM
      1 O1          -1.2350     0.0260    -0.0650 os         1 FU1      -0.466000
      2 C2           1.0100     0.6820     0.2240 c5         1 FU1      -0.114400
      3 C3           0.9740    -0.7870    -0.1800 c5         1 FU1      -0.114400
      4 C4          -0.3740     1.1490    -0.2070 c5         1 FU1       0.154600
      5 C5          -0.4690    -1.1550     0.1350 c5         1 FU1       0.154600
      6 H2           1.1330     0.7800     1.3050 hc         1 FU1       0.054200
      7 H2A          1.8080     1.2480    -0.2570 hc         1 FU1       0.054200
      8 H3           1.1770    -0.8950    -1.2480 hc         1 FU1       0.054200
      9 H3A          1.6890    -1.4060     0.3610 hc         1 FU1       0.054200
     10 H4          -0.3620     1.4820    -1.2520 h1         1 FU1       0.042450
     11 H4A         -0.7510     1.9760     0.4000 h1         1 FU1       0.042450
     12 H5          -0.5660    -1.4900     1.1750 h1         1 FU1       0.042450
     13 H5A         -0.8540    -1.9520    -0.5060 h1         1 FU1       0.042450
@<TRIPOS>BOND
     1     1     4 1   
     2     1     5 1   
     3     2     3 1   
     4     2     4 1   
     5     2     6 1   
     6     2     7 1   
     7     3     5 1   
     8     3     8 1   
     9     3     9 1   
    10     4    10 1   
    11     4    11 1   
    12     5    12 1   
    13     5    13 1   
@<TRIPOS>SUBSTRUCTURE
     1 FU1         1 TEMP              0 ****  ****    0 ROOT
