@<TRIPOS>MOLECULE
FU1
   13    13     1     0     0
SMALL
No Charge or Current Charge


@<TRIPOS>ATOM
      1 O1          -1.1670     0.0750     0.4180 os         1 FU1      -0.466000
      2 C2           1.0390     0.7390     0.2080 c5         1 FU1      -0.114400
      3 C3           1.0080    -0.7840    -0.1030 c5         1 FU1      -0.114400
      4 C4          -0.4010     1.1380    -0.1720 c5         1 FU1       0.154600
      5 C5          -0.4910    -1.1630     0.1070 c5         1 FU1       0.154600
      6 H2           1.2330     0.9320     1.2700 hc         1 FU1       0.054200
      7 H2A          1.7960     1.2780    -0.3730 hc         1 FU1       0.054200
      8 H3           1.3150    -0.9880    -1.1350 hc         1 FU1       0.054200
      9 H3A          1.6760    -1.3540     0.5520 hc         1 FU1       0.054200
     10 H4          -0.5580     1.1430    -1.2600 h1         1 FU1       0.042450
     11 H4A         -0.7070     2.1070     0.2440 h1         1 FU1       0.042450
     12 H5          -0.6350    -1.8720     0.9350 h1         1 FU1       0.042450
     13 H5A         -0.9280    -1.5940    -0.8040 h1         1 FU1       0.042450
@<TRIPOS>BOND
     1     1     4 1   
     2     1     5 1   
     3     2     3 1   
     4     2     4 1   
     5     2     6 1   
     6     2     7 1   
     7     3     5 1   
     8     3     8 1   
     9     3     9 1   
    10     4    10 1   
    11     4    11 1   
    12     5    12 1   
    13     5    13 1   
@<TRIPOS>SUBSTRUCTURE
     1 FU1         1 TEMP              0 ****  ****    0 ROOT
