@<TRIPOS>MOLECULE
FU2
   11    11     1     0     0
SMALL
No Charge or Current Charge


@<TRIPOS>ATOM
      1 C1          -0.7380    -2.8210     0.4450 c          1 FU2       0.504400
      2 C2          -0.2120    -2.0990    -0.7370 cc         1 FU2       0.002500
      3 O3           0.0230    -2.7060    -1.9540 os         1 FU2      -0.221000
      4 C4           0.5040    -1.7250    -2.7960 cc         1 FU2       0.154900
      5 C5           0.5670    -0.5350    -2.1210 cd         1 FU2      -0.208000
      6 C6           0.1110    -0.7700    -0.8060 cd         1 FU2      -0.092000
      7 OXT         -0.9560    -2.3050     1.5390 o          1 FU2      -0.509100
      8 H1          -0.9330    -3.9030     0.2800 h4         1 FU2       0.009200
      9 H4           0.7520    -2.0020    -3.8110 h4         1 FU2       0.056100
     10 H5           0.9070     0.4110    -2.5300 ha         1 FU2       0.148000
     11 H6           0.0290    -0.0440    -0.0020 ha         1 FU2       0.156000
@<TRIPOS>BOND
     1     1     2 1   
     2     1     7 2   
     3     1     8 1   
     4     2     3 1   
     5     2     6 2   
     6     3     4 1   
     7     4     5 2   
     8     4     9 1   
     9     5     6 1   
    10     5    10 1   
    11     6    11 1   
@<TRIPOS>SUBSTRUCTURE
     1 FU2         1 TEMP              0 ****  ****    0 ROOT
