@<TRIPOS>MOLECULE
FU2
   11    11     1     0     0
SMALL
abcg2


@<TRIPOS>ATOM
      1 C1          -0.7270    -2.8370     0.3970 c          1 FU2       0.504400
      2 C2          -0.2110    -2.0420    -0.6950 cc         1 FU2       0.002500
      3 O3           0.0110    -2.6630    -1.8790 os         1 FU2      -0.221000
      4 C4           0.4790    -1.7460    -2.7290 cc         1 FU2       0.154900
      5 C5           0.5700    -0.5290    -2.1250 cd         1 FU2      -0.208000
      6 C6           0.1200    -0.7220    -0.7970 cd         1 FU2      -0.092000
      7 OXT         -0.9620    -2.3820     1.4960 o          1 FU2      -0.509100
      8 H1          -0.8950    -3.9010     0.1600 h4         1 FU2       0.009200
      9 H4           0.7080    -2.0800    -3.7280 h4         1 FU2       0.056100
     10 H5           0.9150     0.3860    -2.5770 ha         1 FU2       0.148000
     11 H6           0.0480     0.0170    -0.0160 ha         1 FU2       0.156000
@<TRIPOS>BOND
     1     1     2 1   
     2     1     7 2   
     3     1     8 1   
     4     2     3 1   
     5     2     6 2   
     6     3     4 1   
     7     4     5 2   
     8     4     9 1   
     9     5     6 1   
    10     5    10 1   
    11     6    11 1   
@<TRIPOS>SUBSTRUCTURE
     1 FU2         1 TEMP              0 ****  ****    0 ROOT
