@<TRIPOS>MOLECULE
FU3
   55    58     1     0     0
SMALL
No Charge or Current Charge


@<TRIPOS>ATOM
      1 C1           3.2610     1.2530    -1.2630 ca         1 FU3      -0.204000
      2 C2           4.3130    -0.9080    -1.6210 ca         1 FU3      -0.142000
      3 C3          -6.4150    -3.6570    -1.4960 cy         1 FU3      -0.091400
      4 C4          -6.7600    -2.2320    -0.9500 cy         1 FU3      -0.099900
      5 C5          -5.6740    -2.8990    -2.6470 cy         1 FU3      -0.099900
      6 C6          -0.5460    -1.1120    -0.6160 c5         1 FU3       0.197300
      7 C7          -2.1150    -2.1650     1.0740 c5         1 FU3       0.052700
      8 C8          -0.0700     3.1890     0.8850 c3         1 FU3      -0.081400
      9 C9          -0.4950     4.6630     0.6540 c3         1 FU3      -0.151400
     10 C10          1.1290     2.7640     0.0170 c3         1 FU3       0.165600
     11 C11          4.2290     0.4630    -1.8960 ca         1 FU3       0.174000
     12 C12          2.3710     0.6620    -0.3450 ca         1 FU3       0.189100
     13 C13          3.4270    -1.4980    -0.7070 ca         1 FU3       0.190000
     14 C14          0.1160    -1.5100     0.6680 ca         1 FU3      -0.246300
     15 C15         -0.7070    -2.0870     1.5960 ca         1 FU3       0.139300
     16 C16          2.4390    -0.7210    -0.0530 cp         1 FU3      -0.186500
     17 C17          1.4920    -1.3390     0.9150 cp         1 FU3       0.258500
     18 C18          1.0940    -2.3190     2.9640 ca         1 FU3       0.385900
     19 C19         -5.4110    -1.7690    -1.5950 cy         1 FU3       0.109700
     20 C21         -1.7000     5.1210     1.5060 c3         1 FU3       0.303000
     21 N22          1.6010    -2.7380     4.1510 nv         1 FU3      -1.059900
     22 N23         -0.2300    -2.5100     2.7820 nb         1 FU3      -0.228000
     23 N24          1.9750    -1.7640     2.1040 nb         1 FU3      -0.233000
     24 N25         -4.2140    -1.8290    -0.7990 ns         1 FU3      -0.515900
     25 N26         -1.9450    -1.5530    -0.2990 n          1 FU3      -0.448800
     26 O27         -2.8050    -0.8900    -2.3200 o          1 FU3      -0.645100
     27 O28          1.4010     1.3860     0.3160 os         1 FU3      -0.337100
     28 F29         -2.7970     4.3760     1.2410 f          1 FU3      -0.116000
     29 F30         -1.4300     5.0180     2.8280 f          1 FU3      -0.116000
     30 F31         -2.0020     6.4120     1.2440 f          1 FU3      -0.116000
     31 Cl32         5.3420     1.1960    -3.0420 cl         1 FU3      -0.186000
     32 Cl33         3.5590    -3.2330    -0.4280 cl         1 FU3      -0.173000
     33 H1           3.2200     2.3130    -1.4920 ha         1 FU3       0.138000
     34 H2           5.0620    -1.5150    -2.1200 ha         1 FU3       0.150000
     35 H3A         -7.2670    -4.2760    -1.7980 hc         1 FU3       0.050700
     36 H4          -7.6530    -1.7790    -1.3960 hc         1 FU3       0.057200
     37 H4A         -6.8300    -2.1390     0.1390 hc         1 FU3       0.057200
     38 H5          -4.7850    -3.3940    -3.0530 hc         1 FU3       0.057200
     39 H5A         -6.3180    -2.5990    -3.4820 hc         1 FU3       0.057200
     40 H6          -0.4920    -0.0310    -0.7970 h1         1 FU3       0.066700
     41 H7          -2.4600    -3.2060     1.0200 h1         1 FU3       0.064200
     42 H8           0.1900     3.0420     1.9410 hc         1 FU3       0.075700
     43 H8A         -0.9150     2.5240     0.6670 hc         1 FU3       0.075700
     44 H9           0.3560     5.3220     0.8690 hc         1 FU3       0.079700
     45 H9A         -0.7420     4.8050    -0.4050 hc         1 FU3       0.079700
     46 H10          0.8760     2.8880    -1.0440 h1         1 FU3       0.042200
     47 H10A         1.9980     3.3920     0.2510 h1         1 FU3       0.042200
     48 H19         -5.4720    -0.7610    -2.0230 h1         1 FU3       0.068700
     49 HN22         1.0320    -3.3500     4.7340 hn         1 FU3       0.498000
     50 HN2A         2.6100    -2.8180     4.2530 hn         1 FU3       0.498000
     51 HN25        -4.2480    -2.2250     0.1290 hn         1 FU3       0.310500
     52 H21         -0.1290    -1.6510    -1.4780 h1         1 FU3       0.066700
     53 H22         -2.8030    -1.5830     1.7010 h1         1 FU3       0.064200
     54 C20         -2.9850    -1.3900    -1.2200 c          1 FU3       0.660100
     55 H3          -5.7620    -4.2520    -0.8450 hc         1 FU3       0.050700
@<TRIPOS>BOND
     1     1    11 ar  
     2     1    12 ar  
     3     1    33 1   
     4     2    11 ar  
     5     2    13 ar  
     6     2    34 1   
     7     3     4 1   
     8     3     5 1   
     9     3    35 1   
    10     3    55 1   
    11     4    19 1   
    12     4    36 1   
    13     4    37 1   
    14     5    19 1   
    15     5    38 1   
    16     5    39 1   
    17     6    14 1   
    18     6    25 1   
    19     6    40 1   
    20     6    52 1   
    21     7    15 1   
    22     7    25 1   
    23     7    41 1   
    24     7    53 1   
    25     8     9 1   
    26     8    10 1   
    27     8    42 1   
    28     8    43 1   
    29     9    20 1   
    30     9    44 1   
    31     9    45 1   
    32    10    27 1   
    33    10    46 1   
    34    10    47 1   
    35    11    31 1   
    36    12    16 ar  
    37    12    27 1   
    38    13    16 ar  
    39    13    32 1   
    40    14    15 ar  
    41    14    17 ar  
    42    15    22 ar  
    43    16    17 1   
    44    17    23 ar  
    45    18    21 1   
    46    18    22 ar  
    47    18    23 ar  
    48    19    24 1   
    49    19    48 1   
    50    20    28 1   
    51    20    29 1   
    52    20    30 1   
    53    21    49 1   
    54    21    50 1   
    55    24    51 1   
    56    24    54 1   
    57    25    54 1   
    58    26    54 2   
@<TRIPOS>SUBSTRUCTURE
     1 FU3         1 TEMP              0 ****  ****    0 ROOT
