@<TRIPOS>MOLECULE
FU3
   55    58     1     0     0
SMALL
abcg2


@<TRIPOS>ATOM
      1 C1           3.1810     1.2790    -1.2440 ca         1 FU3      -0.204000
      2 C2           4.2430    -0.8740    -1.6050 ca         1 FU3      -0.142000
      3 C3          -6.3830    -3.7680    -1.7260 cy         1 FU3      -0.091400
      4 C4          -6.6660    -2.5270    -0.8590 cy         1 FU3      -0.099900
      5 C5          -5.5460    -2.8670    -2.6540 cy         1 FU3      -0.099900
      6 C6          -0.7190    -1.1380    -0.6570 c5         1 FU3       0.197300
      7 C7          -2.1220    -2.1820     1.0590 c5         1 FU3       0.052700
      8 C8          -0.0350     3.1900     0.8820 c3         1 FU3      -0.081400
      9 C9          -0.2740     4.6820     0.6800 c3         1 FU3      -0.151400
     10 C10          1.1510     2.7410     0.0540 c3         1 FU3       0.165600
     11 C11          4.1410     0.4820    -1.8500 ca         1 FU3       0.174000
     12 C12          2.2920     0.6870    -0.3530 ca         1 FU3       0.189100
     13 C13          3.3430    -1.4330    -0.7090 ca         1 FU3       0.190000
     14 C14          0.0750    -1.4580     0.5630 ca         1 FU3      -0.246300
     15 C15         -0.7100    -2.0510     1.5350 ca         1 FU3       0.139300
     16 C16          2.3650    -0.6850    -0.0730 cp         1 FU3      -0.186500
     17 C17          1.4080    -1.2870     0.8850 cp         1 FU3       0.258500
     18 C18          1.0300    -2.2310     2.9270 ca         1 FU3       0.385900
     19 C19         -5.4690    -1.8190    -1.5230 cy         1 FU3       0.109700
     20 C21         -1.4200     5.2140     1.4940 c3         1 FU3       0.303000
     21 N22          1.5200    -2.5830     4.1310 nv         1 FU3      -1.059900
     22 N23         -0.2760    -2.4470     2.7090 nb         1 FU3      -0.228000
     23 N24          1.8820    -1.6700     2.0620 nb         1 FU3      -0.233000
     24 N25         -4.2870    -1.9530    -0.7020 ns         1 FU3      -0.515900
     25 N26         -2.0470    -1.6080    -0.2730 n          1 FU3      -0.448800
     26 O27         -2.9260    -1.0550    -2.2760 o          1 FU3      -0.645100
     27 O28          1.3320     1.3530     0.2960 os         1 FU3      -0.337100
     28 F29         -2.5820     4.6090     1.2000 f          1 FU3      -0.116000
     29 F30         -1.2320     5.0530     2.8140 f          1 FU3      -0.116000
     30 F31         -1.6080     6.5270     1.2910 f          1 FU3      -0.116000
     31 CL32         5.2480     1.2150    -2.9560 cl         1 FU3      -0.186000
     32 CL33         3.4360    -3.1320    -0.4140 cl         1 FU3      -0.173000
     33 H1           3.1410     2.3350    -1.4690 ha         1 FU3       0.138000
     34 H2           4.9930    -1.4800    -2.0910 ha         1 FU3       0.150000
     35 H3A         -7.2400    -4.2810    -2.1600 hc         1 FU3       0.050700
     36 H4          -7.6020    -2.0420    -1.1370 hc         1 FU3       0.057200
     37 H4A         -6.6460    -2.6350     0.2280 hc         1 FU3       0.057200
     38 H5          -4.6030    -3.2540    -3.0370 hc         1 FU3       0.057200
     39 H5A         -6.1340    -2.4900    -3.4910 hc         1 FU3       0.057200
     40 H6          -0.7240    -0.0680    -0.8840 h1         1 FU3       0.066700
     41 H7          -2.4400    -3.2300     1.0470 h1         1 FU3       0.064200
     42 H8           0.1600     2.9710     1.9330 hc         1 FU3       0.075700
     43 H8A         -0.9170     2.6190     0.5830 hc         1 FU3       0.075700
     44 H9           0.6200     5.2500     0.9510 hc         1 FU3       0.079700
     45 H9A         -0.4810     4.8960    -0.3710 hc         1 FU3       0.079700
     46 H10          0.9680     2.9200    -1.0100 h1         1 FU3       0.042200
     47 H10A         2.0520     3.2940     0.3410 h1         1 FU3       0.042200
     48 H19         -5.6250    -0.7780    -1.8180 h1         1 FU3       0.068700
     49 HN22         0.9630    -3.1640     4.7330 hn         1 FU3       0.498000
     50 HN2A         2.5160    -2.6060     4.2640 hn         1 FU3       0.498000
     51 HN25        -4.4280    -2.1280     0.2790 hn         1 FU3       0.310500
     52 H21         -0.3460    -1.6570    -1.5450 h1         1 FU3       0.066700
     53 H22         -2.8040    -1.6340     1.7180 h1         1 FU3       0.064200
     54 C20         -3.0830    -1.5100    -1.1460 c          1 FU3       0.660100
     55 H3          -5.7700    -4.5020    -1.2020 hc         1 FU3       0.050700
@<TRIPOS>BOND
     1     1    11 ar  
     2     1    12 ar  
     3     1    33 1   
     4     2    11 ar  
     5     2    13 ar  
     6     2    34 1   
     7     3     4 1   
     8     3     5 1   
     9     3    35 1   
    10     3    55 1   
    11     4    19 1   
    12     4    36 1   
    13     4    37 1   
    14     5    19 1   
    15     5    38 1   
    16     5    39 1   
    17     6    14 1   
    18     6    25 1   
    19     6    40 1   
    20     6    52 1   
    21     7    15 1   
    22     7    25 1   
    23     7    41 1   
    24     7    53 1   
    25     8     9 1   
    26     8    10 1   
    27     8    42 1   
    28     8    43 1   
    29     9    20 1   
    30     9    44 1   
    31     9    45 1   
    32    10    27 1   
    33    10    46 1   
    34    10    47 1   
    35    11    31 1   
    36    12    16 ar  
    37    12    27 1   
    38    13    16 ar  
    39    13    32 1   
    40    14    15 ar  
    41    14    17 ar  
    42    15    22 ar  
    43    16    17 1   
    44    17    23 ar  
    45    18    21 1   
    46    18    22 ar  
    47    18    23 ar  
    48    19    24 1   
    49    19    48 1   
    50    20    28 1   
    51    20    29 1   
    52    20    30 1   
    53    21    49 1   
    54    21    50 1   
    55    24    51 1   
    56    24    54 1   
    57    25    54 1   
    58    26    54 2   
@<TRIPOS>SUBSTRUCTURE
     1 FU3         1 TEMP              0 ****  ****    0 ROOT
