@<TRIPOS>MOLECULE
FU5
   38    39     1     0     0
SMALL
abcg2


@<TRIPOS>ATOM
      1 C1           1.7890    -1.0530    -0.1980 cp         1 FU5      -0.179500
      2 C2           1.8720     0.4290    -0.1500 cp         1 FU5       0.231500
      3 C3           0.5410    -1.6810    -0.0940 ca         1 FU5       0.174100
      4 C4           2.9170    -1.8440    -0.3410 ca         1 FU5       0.180000
      5 C5           1.5550     1.1870    -1.2650 ca         1 FU5      -0.255000
      6 N6           2.2680     0.9720     0.9890 nb         1 FU5      -0.228000
      7 C7           0.4460    -3.0680    -0.1450 ca         1 FU5      -0.204000
      8 O8          -0.5030    -0.8520     0.0610 os         1 FU5      -0.338100
      9 C9           2.8440    -3.2280    -0.3910 ca         1 FU5      -0.145000
     10 CL10         4.4650    -1.0840    -0.4860 cl         1 FU5      -0.181000
     11 C11          1.6670     2.5670    -1.1390 ca         1 FU5       0.168300
     12 C12          2.3530     2.3040     1.0080 ca         1 FU5       0.374900
     13 C13          1.6000    -3.8250    -0.2920 ca         1 FU5      -0.056000
     14 C14         -1.8100    -1.3840     0.1280 c3         1 FU5       0.166600
     15 N15          2.0680     3.1230    -0.0030 nb         1 FU5      -0.252000
     16 C16          1.3270     3.4880    -2.2650 c3         1 FU5      -0.150400
     17 N17          2.8050     2.8720     2.1520 nv         1 FU5      -1.051900
     18 C18         -2.7560    -0.2170     0.3250 c3         1 FU5      -0.081400
     19 C19         -4.1990    -0.7050     0.3830 c3         1 FU5      -0.150400
     20 C20         -5.1860     0.4000     0.6420 c3         1 FU5       0.302000
     21 F21         -5.1440     1.3560    -0.3010 f          1 FU5      -0.116333
     22 F22         -6.4480    -0.0540     0.6710 f          1 FU5      -0.116333
     23 F23         -4.9710     1.0140     1.8160 f          1 FU5      -0.116333
     24 H5           1.2310     0.7270    -2.1870 ha         1 FU5       0.135000
     25 H7          -0.5060    -3.5730    -0.0680 ha         1 FU5       0.121000
     26 H9           3.7380    -3.8240    -0.5090 ha         1 FU5       0.134000
     27 H13          1.5220    -4.9020    -0.3290 ha         1 FU5       0.118000
     28 H14         -2.0510    -1.9260    -0.7940 h1         1 FU5       0.036700
     29 H14A        -1.9000    -2.0890     0.9620 h1         1 FU5       0.036700
     30 H16          0.3980     4.0160    -2.0490 hc         1 FU5       0.054367
     31 H16A         2.1030     4.2410    -2.3960 hc         1 FU5       0.054367
     32 H16B         1.1990     2.9530    -3.2030 hc         1 FU5       0.054367
     33 HN17         2.7920     2.3180     2.9900 hn         1 FU5       0.486500
     34 HN1A         2.6510     3.8560     2.2790 hn         1 FU5       0.486500
     35 H18         -2.4880     0.2960     1.2500 hc         1 FU5       0.074200
     36 H18A        -2.6250     0.4890    -0.4970 hc         1 FU5       0.074200
     37 H19         -4.4790    -1.1870    -0.5570 hc         1 FU5       0.078700
     38 H19A        -4.3230    -1.4510     1.1710 hc         1 FU5       0.078700
@<TRIPOS>BOND
     1     1     2 1   
     2     1     3 ar  
     3     1     4 ar  
     4     2     5 ar  
     5     2     6 ar  
     6     3     7 ar  
     7     3     8 1   
     8     4     9 ar  
     9     4    10 1   
    10     5    11 ar  
    11     5    24 1   
    12     6    12 ar  
    13     7    13 ar  
    14     7    25 1   
    15     8    14 1   
    16     9    13 ar  
    17     9    26 1   
    18    11    15 ar  
    19    11    16 1   
    20    12    15 ar  
    21    12    17 1   
    22    13    27 1   
    23    14    18 1   
    24    14    28 1   
    25    14    29 1   
    26    16    30 1   
    27    16    31 1   
    28    16    32 1   
    29    17    33 1   
    30    17    34 1   
    31    18    19 1   
    32    18    35 1   
    33    18    36 1   
    34    19    20 1   
    35    19    37 1   
    36    19    38 1   
    37    20    21 1   
    38    20    22 1   
    39    20    23 1   
@<TRIPOS>SUBSTRUCTURE
     1 FU5         1 TEMP              0 ****  ****    0 ROOT
