@<TRIPOS>MOLECULE
FU5
   38    39     1     0     0
SMALL
No Charge or Current Charge


@<TRIPOS>ATOM
      1 C1           1.8740    -1.0880    -0.1250 cp         1 FU5      -0.179500
      2 C2           1.9670     0.4010    -0.0940 cp         1 FU5       0.231500
      3 C3           0.6120    -1.7320    -0.0620 ca         1 FU5       0.174100
      4 C4           3.0330    -1.9030    -0.2280 ca         1 FU5       0.180000
      5 C5           1.3250     1.2140    -1.0570 ca         1 FU5      -0.255000
      6 N6           2.6720     0.9680     0.9050 nb         1 FU5      -0.228000
      7 C7           0.5110    -3.1390    -0.0910 ca         1 FU5      -0.204000
      8 O8          -0.4980    -0.9180     0.0490 os         1 FU5      -0.338100
      9 C9           2.9260    -3.3030    -0.2580 ca         1 FU5      -0.145000
     10 Cl10         4.6480    -1.2070    -0.3720 cl         1 FU5      -0.181000
     11 C11          1.4480     2.6080    -0.9400 ca         1 FU5       0.168300
     12 C12          2.7290     2.3080     0.9260 ca         1 FU5       0.374900
     13 C13          1.6700    -3.9230    -0.1880 ca         1 FU5      -0.056000
     14 C14         -1.8360    -1.4370     0.0860 c3         1 FU5       0.166600
     15 N15          2.1570     3.1620     0.0640 nb         1 FU5      -0.252000
     16 C16          0.7820     3.5510    -1.9240 c3         1 FU5      -0.150400
     17 N17          3.4410     2.8670     1.9370 nv         1 FU5      -1.051900
     18 C18         -2.7920    -0.2340     0.1810 c3         1 FU5      -0.081400
     19 C19         -4.2870    -0.6480     0.2220 c3         1 FU5      -0.150400
     20 C20         -5.2760     0.5360     0.3170 c3         1 FU5       0.302000
     21 F21         -5.1510     1.3620    -0.7470 f          1 FU5      -0.116333
     22 F22         -6.5510     0.0870     0.3460 f          1 FU5      -0.116333
     23 F23         -5.0640     1.2600     1.4390 f          1 FU5      -0.116333
     24 H5           0.7480     0.7670    -1.8610 ha         1 FU5       0.135000
     25 H7          -0.4510    -3.6390    -0.0370 ha         1 FU5       0.121000
     26 H9           3.8240    -3.9110    -0.3430 ha         1 FU5       0.134000
     27 H13          1.5960    -5.0090    -0.2120 ha         1 FU5       0.118000
     28 H14         -2.0550    -2.0090    -0.8260 h1         1 FU5       0.036700
     29 H14A        -1.9760    -2.0900     0.9570 h1         1 FU5       0.036700
     30 H16         -0.1930     3.8810    -1.5470 hc         1 FU5       0.054367
     31 H16A         1.3940     4.4440    -2.1010 hc         1 FU5       0.054367
     32 H16B         0.6190     3.0650    -2.8930 hc         1 FU5       0.054367
     33 HN17         3.7140     2.2820     2.7230 hn         1 FU5       0.486500
     34 HN1A         3.3410     3.8640     2.1150 hn         1 FU5       0.486500
     35 H18         -2.5460     0.3420     1.0820 hc         1 FU5       0.074200
     36 H18A        -2.6170     0.4250    -0.6790 hc         1 FU5       0.074200
     37 H19         -4.5240    -1.2300    -0.6770 hc         1 FU5       0.078700
     38 H19A        -4.4540    -1.3120     1.0790 hc         1 FU5       0.078700
@<TRIPOS>BOND
     1     1     2 1   
     2     1     3 ar  
     3     1     4 ar  
     4     2     5 ar  
     5     2     6 ar  
     6     3     7 ar  
     7     3     8 1   
     8     4     9 ar  
     9     4    10 1   
    10     5    11 ar  
    11     5    24 1   
    12     6    12 ar  
    13     7    13 ar  
    14     7    25 1   
    15     8    14 1   
    16     9    13 ar  
    17     9    26 1   
    18    11    15 ar  
    19    11    16 1   
    20    12    15 ar  
    21    12    17 1   
    22    13    27 1   
    23    14    18 1   
    24    14    28 1   
    25    14    29 1   
    26    16    30 1   
    27    16    31 1   
    28    16    32 1   
    29    17    33 1   
    30    17    34 1   
    31    18    19 1   
    32    18    35 1   
    33    18    36 1   
    34    19    20 1   
    35    19    37 1   
    36    19    38 1   
    37    20    21 1   
    38    20    22 1   
    39    20    23 1   
@<TRIPOS>SUBSTRUCTURE
     1 FU5         1 TEMP              0 ****  ****    0 ROOT
