@<TRIPOS>MOLECULE
FU6
   42    44     1     0     0
SMALL
bcc


@<TRIPOS>ATOM
      1 O01         24.0640    13.1370     7.1980 o          1 FU6      -0.588100
      2 C02         23.6370    13.9720     6.4190 c          1 FU6       0.678300
      3 N03         23.3320    13.7140     5.1180 ns         1 FU6      -0.469100
      4 C04         23.4720    12.5260     4.4020 ca         1 FU6       0.063600
      5 C05         23.2930    12.5950     3.0230 ca         1 FU6      -0.132000
      6 C06         23.4170    11.4580     2.2380 ca         1 FU6      -0.126600
      7 C07         23.7140    10.2350     2.8270 ca         1 FU6      -0.109000
      8 C08         23.8800    10.1520     4.2080 ca         1 FU6      -0.071900
      9 C09         23.7500    11.2940     4.9930 ca         1 FU6      -0.121000
     10 C10         24.1710     8.8620     4.8360 cc         1 FU6       0.397500
     11 N11         23.7950     7.7400     4.2610 nd         1 FU6      -0.517100
     12 N12         24.2010     6.7420     5.0350 na         1 FU6      -0.003100
     13 C13         24.8560     7.1750     6.1370 ca         1 FU6      -0.043200
     14 C14         25.4500     6.4750     7.1930 ca         1 FU6      -0.153000
     15 C15         26.0690     7.2280     8.1640 ca         1 FU6      -0.089000
     16 C16         26.1110     8.6360     8.0920 ca         1 FU6      -0.166000
     17 C17         25.5230     9.3180     7.0510 ca         1 FU6      -0.049000
     18 C18         24.8680     8.5790     6.0530 ca         1 FU6      -0.211900
     19 C19         23.1940    11.6060     0.7660 c          1 FU6       0.681700
     20 O20         22.5060    12.5080     0.3140 o          1 FU6      -0.593100
     21 N21         23.7860    10.6880    -0.0200 ns         1 FU6      -0.566900
     22 C22         23.6580    10.7280    -1.4570 c3         1 FU6       0.190100
     23 C23         24.4840    11.7630    -2.0800 c1         1 FU6      -0.174100
     24 C24         25.1690    12.6030    -2.6000 c1         1 FU6      -0.132500
     25 C25         23.3960    15.3860     6.8020 ce         1 FU6      -0.256200
     26 C26         23.6270    15.8180     8.0360 c2         1 FU6      -0.122000
     27 H1          23.0160    14.5020     4.5720 hn         1 FU6       0.321500
     28 H2          23.0590    13.5440     2.5560 ha         1 FU6       0.151000
     29 H3          23.7970     9.3330     2.2350 ha         1 FU6       0.146000
     30 H4          23.8270    11.2190     6.0640 ha         1 FU6       0.171000
     31 H6          25.4260     5.3950     7.2420 ha         1 FU6       0.137000
     32 H7          26.5410     6.7310     9.0000 ha         1 FU6       0.131000
     33 H8          26.6190     9.1860     8.8730 ha         1 FU6       0.135000
     34 H9          25.5800    10.3970     7.0140 ha         1 FU6       0.151000
     35 H10         22.6130    10.8790    -1.7330 h1         1 FU6       0.069700
     36 H11         25.7800    13.3490    -3.0530 ha         1 FU6       0.166500
     37 H12         23.0240    16.0670     6.0440 ha         1 FU6       0.130000
     38 H13         23.4510    16.8490     8.3080 ha         1 FU6       0.128500
     39 H14         23.9990    15.1610     8.8120 ha         1 FU6       0.128500
     40 H5          24.0020     5.7920     4.7680 hn         1 FU6       0.326700
     41 H15         24.4800    10.0680     0.3640 hn         1 FU6       0.322500
     42 H16         23.9470     9.7520    -1.8450 h1         1 FU6       0.069700
@<TRIPOS>BOND
     1     1     2 2   
     2     2     3 1   
     3     2    25 1   
     4     3     4 1   
     5     3    27 1   
     6     4     5 ar  
     7     4     9 ar  
     8     5     6 ar  
     9     5    28 1   
    10     6     7 ar  
    11     6    19 1   
    12     7     8 ar  
    13     7    29 1   
    14     8     9 ar  
    15     8    10 1   
    16     9    30 1   
    17    10    11 2   
    18    10    18 1   
    19    11    12 1   
    20    12    13 1   
    21    12    40 1   
    22    13    14 ar  
    23    13    18 ar  
    24    14    15 ar  
    25    14    31 1   
    26    15    16 ar  
    27    15    32 1   
    28    16    17 ar  
    29    16    33 1   
    30    17    18 ar  
    31    17    34 1   
    32    19    20 2   
    33    19    21 1   
    34    21    22 1   
    35    21    41 1   
    36    22    23 1   
    37    22    35 1   
    38    22    42 1   
    39    23    24 3   
    40    24    36 1   
    41    25    26 2   
    42    25    37 1   
    43    26    38 1   
    44    26    39 1   
@<TRIPOS>SUBSTRUCTURE
     1 FU6         1 TEMP              0 ****  ****    0 ROOT
