@<TRIPOS>MOLECULE
FU6
   42    44     1     0     0
SMALL
No Charge or Current Charge


@<TRIPOS>ATOM
      1 O01         23.6630    13.0620     7.5850 o          1 FU6      -0.588100
      2 C02         23.1330    13.8860     6.8500 c          1 FU6       0.611300
      3 N03         23.0090    13.7450     5.4740 ns         1 FU6      -0.143000
      4 C04         23.3640    12.6900     4.5900 ca         1 FU6      -0.029000
      5 C05         23.3360    12.9560     3.2090 ca         1 FU6      -0.114000
      6 C06         23.6500    11.9560     2.2610 ca         1 FU6      -0.126600
      7 C07         24.0070    10.6700     2.7320 ca         1 FU6      -0.091000
      8 C08         24.0680    10.3910     4.1140 ca         1 FU6      -0.071900
      9 C09         23.7110    11.3980     5.0330 ca         1 FU6      -0.103000
     10 C10         24.3910     9.0330     4.5770 cc         1 FU6       0.397500
     11 N11         24.0240     7.9230     3.9130 nd         1 FU6      -0.517100
     12 N12         24.5180     6.8860     4.7160 na         1 FU6      -0.053400
     13 C13         25.1920     7.3600     5.8210 ca         1 FU6      -0.043200
     14 C14         25.8670     6.6670     6.8330 ca         1 FU6      -0.135000
     15 C15         26.5230     7.4310     7.8220 ca         1 FU6      -0.071000
     16 C16         26.5030     8.8460     7.7610 ca         1 FU6      -0.148000
     17 C17         25.8180     9.5120     6.7200 ca         1 FU6      -0.031000
     18 C18         25.1490     8.7190     5.7720 ca         1 FU6      -0.211900
     19 C19         23.5920    12.2880     0.7800 c          1 FU6       0.614700
     20 O20         23.2860    13.4010     0.3700 o          1 FU6      -0.593100
     21 N21         23.9010    11.2750    -0.0970 ns         1 FU6      -0.499900
     22 C22         23.8970    11.4140    -1.5480 c3         1 FU6       0.190100
     23 C23         24.2770    10.1350    -2.1580 c1         1 FU6      -0.174100
     24 C24         24.5930     9.0680    -2.6330 c1         1 FU6      -0.220000
     25 C25         22.5840    15.1750     7.3750 ce         1 FU6      -0.306200
     26 C26         22.6870    15.5840     8.6650 c2         1 FU6      -0.222000
     27 H1          22.5830    14.5390     5.0150 hn         1 FU6       0.155000
     28 H2          23.0590    13.9520     2.8700 ha         1 FU6       0.133000
     29 H3          24.2530     9.8730     2.0360 ha         1 FU6       0.128000
     30 H4          23.6770    11.1520     6.0890 ha         1 FU6       0.153000
     31 H6          25.8930     5.5800     6.8540 ha         1 FU6       0.119000
     32 H7          27.0600     6.9310     8.6250 ha         1 FU6       0.113000
     33 H8          27.0270     9.4260     8.5170 ha         1 FU6       0.117000
     34 H9          25.8270    10.5980     6.6590 ha         1 FU6       0.133000
     35 H10         24.6120    12.1940    -1.8440 h1         1 FU6       0.069700
     36 H11         24.8710     8.1270    -3.0670 ha         1 FU6       0.254000
     37 H12         22.0960    15.8150     6.6400 ha         1 FU6       0.180000
     38 H13         22.2800    16.5400     8.9980 ha         1 FU6       0.178500
     39 H14         23.1790    14.9770     9.4280 ha         1 FU6       0.178500
     40 H5          24.3860     5.9070     4.4660 hn         1 FU6       0.377000
     41 H15         24.1440    10.3760     0.2940 hn         1 FU6       0.322500
     42 H16         22.8940    11.7040    -1.8870 h1         1 FU6       0.069700
@<TRIPOS>BOND
     1     1     2 2   
     2     2     3 1   
     3     2    25 1   
     4     3     4 1   
     5     3    27 1   
     6     4     5 ar  
     7     4     9 ar  
     8     5     6 ar  
     9     5    28 1   
    10     6     7 ar  
    11     6    19 1   
    12     7     8 ar  
    13     7    29 1   
    14     8     9 ar  
    15     8    10 1   
    16     9    30 1   
    17    10    11 2   
    18    10    18 1   
    19    11    12 1   
    20    12    13 1   
    21    12    40 1   
    22    13    14 ar  
    23    13    18 ar  
    24    14    15 ar  
    25    14    31 1   
    26    15    16 ar  
    27    15    32 1   
    28    16    17 ar  
    29    16    33 1   
    30    17    18 ar  
    31    17    34 1   
    32    19    20 2   
    33    19    21 1   
    34    21    22 1   
    35    21    41 1   
    36    22    23 1   
    37    22    35 1   
    38    22    42 1   
    39    23    24 3   
    40    24    36 1   
    41    25    26 2   
    42    25    37 1   
    43    26    38 1   
    44    26    39 1   
@<TRIPOS>SUBSTRUCTURE
     1 FU6         1 TEMP              0 ****  ****    0 ROOT
