@<TRIPOS>MOLECULE
FU7
   55    58     1     0     0
SMALL
bcc


@<TRIPOS>ATOM
      1 C1          -2.1700    -1.2140     0.2090 cp         1 FU7      -0.188500
      2 F1           5.6220    -1.2250     2.4860 f          1 FU7      -0.242800
      3 N1           2.3040    -0.6460     0.0400 n          1 FU7      -0.510800
      4 O1           3.0440     0.6080     1.7590 o          1 FU7      -0.638100
      5 CL1         -2.3280    -3.7770     1.0210 cl         1 FU7      -0.077400
      6 C2          -2.5450     0.1340     0.2840 ca         1 FU7       0.188100
      7 F2           6.8880    -1.5520     0.7500 f          1 FU7      -0.242800
      8 N2           0.7320    -2.5070    -2.5700 nb         1 FU7      -0.755000
      9 O2          -1.9080     0.9540    -0.5610 os         1 FU7      -0.320900
     10 CL2         -5.3260     0.1270     3.1220 cl         1 FU7      -0.092400
     11 C3          -3.5210     0.5530     1.1820 ca         1 FU7      -0.218000
     12 N3          -1.5190    -2.3450    -1.8040 nb         1 FU7      -0.757000
     13 C4          -4.1140    -0.3910     2.0040 ca         1 FU7       0.082400
     14 C5          -3.7690    -1.7290     1.9650 ca         1 FU7      -0.158000
     15 N5           4.5310    -0.0780     0.1810 ns         1 FU7      -0.586900
     16 C6          -2.7960    -2.1150     1.0560 ca         1 FU7       0.097400
     17 N6          -1.3030     4.4220    -1.4660 na         1 FU7       0.098400
     18 C7           0.2050    -1.3240    -0.5620 ca         1 FU7      -0.381900
     19 N7          -2.3930     4.9920    -1.9750 nc         1 FU7      -0.530800
     20 C8           0.9200    -0.5590     0.4990 c5         1 FU7       0.197300
     21 C9           2.4820    -1.3870    -1.1980 c5         1 FU7       0.049700
     22 C10          1.0810    -1.7970    -1.5210 ca         1 FU7       0.467600
     23 C11         -0.5830    -2.7560    -2.6680 ca         1 FU7       0.912900
     24 C12         -1.1270    -1.6370    -0.7560 cp         1 FU7       0.590800
     25 C14         -2.1240     2.3520    -0.4760 c3         1 FU7       0.119400
     26 C15         -1.1690     2.9860    -1.4740 c3         1 FU7       0.056300
     27 C16         -0.4480     5.3220    -0.9450 cc         1 FU7      -0.133300
     28 C17         -1.0130     6.5610    -1.1340 cd         1 FU7      -0.310300
     29 C18         -2.2290     6.2880    -1.7820 cd         1 FU7       0.309200
     30 C19          5.6830     0.4640     0.8420 c3         1 FU7       0.068000
     31 C20          6.4660    -0.5780     1.6230 c3         1 FU7       0.396600
     32 C21          7.6450    -0.0250     2.3750 c3         1 FU7      -0.146100
     33 H3          -3.8270     1.5880     1.2440 ha         1 FU7       0.161000
     34 HN4         -0.3500    -3.6810    -4.4620 hn         1 FU7       0.443800
     35 HN4A        -1.9730    -3.5500    -3.9200 hn         1 FU7       0.443800
     36 H5          -4.2350    -2.4500     2.6220 ha         1 FU7       0.169000
     37 HN5          4.6950    -0.6080    -0.6570 hn         1 FU7       0.320500
     38 H8           0.7940    -1.0020     1.4910 h1         1 FU7       0.066700
     39 H9           2.8990    -0.7730    -2.0030 h1         1 FU7       0.067200
     40 H14         -3.1590     2.6030    -0.7260 h1         1 FU7       0.058700
     41 H14A        -1.9120     2.7160     0.5350 h1         1 FU7       0.058700
     42 H15         -1.3650     2.6150    -2.4810 h1         1 FU7       0.077700
     43 H15A        -0.1380     2.7430    -1.2170 h1         1 FU7       0.077700
     44 H16          0.4840     5.0220    -0.4920 h4         1 FU7       0.174000
     45 H17         -0.6070     7.5180    -0.8530 ha         1 FU7       0.166000
     46 H18         -2.9810     6.9870    -2.1160 h4         1 FU7       0.038100
     47 H19          6.3490     0.9130     0.1040 h1         1 FU7       0.076700
     48 H19A         5.3760     1.2610     1.5180 h1         1 FU7       0.076700
     49 H21          8.3200     0.4950     1.6960 hc         1 FU7       0.063700
     50 H21A         7.3140     0.6840     3.1320 hc         1 FU7       0.063700
     51 H21B         8.2000    -0.8230     2.8690 hc         1 FU7       0.063700
     52 H20          0.5860     0.4800     0.5610 h1         1 FU7       0.066700
     53 H211         3.1280    -2.2630    -1.0760 h1         1 FU7       0.067200
     54 C13          3.2850    -0.0090     0.7260 c          1 FU7       0.804100
     55 N4          -0.9910    -3.5050    -3.7080 nv         1 FU7      -0.946500
@<TRIPOS>BOND
     1     1     6 ar  
     2     1    16 ar  
     3     1    24 1   
     4     2    31 1   
     5     3    20 1   
     6     3    21 1   
     7     3    54 1   
     8     4    54 2   
     9     5    16 1   
    10     6     9 1   
    11     6    11 ar  
    12     7    31 1   
    13     8    22 ar  
    14     8    23 ar  
    15     9    25 1   
    16    10    13 1   
    17    11    13 ar  
    18    11    33 1   
    19    12    23 ar  
    20    12    24 ar  
    21    13    14 ar  
    22    14    16 ar  
    23    14    36 1   
    24    15    30 1   
    25    15    37 1   
    26    15    54 1   
    27    17    19 1   
    28    17    26 1   
    29    17    27 1   
    30    18    20 1   
    31    18    22 ar  
    32    18    24 ar  
    33    19    29 2   
    34    20    38 1   
    35    20    52 1   
    36    21    22 1   
    37    21    39 1   
    38    21    53 1   
    39    23    55 1   
    40    25    26 1   
    41    25    40 1   
    42    25    41 1   
    43    26    42 1   
    44    26    43 1   
    45    27    28 2   
    46    27    44 1   
    47    28    29 1   
    48    28    45 1   
    49    29    46 1   
    50    30    31 1   
    51    30    47 1   
    52    30    48 1   
    53    31    32 1   
    54    32    49 1   
    55    32    50 1   
    56    32    51 1   
    57    34    55 1   
    58    35    55 1   
@<TRIPOS>SUBSTRUCTURE
     1 FU7         1 TEMP              0 ****  ****    0 ROOT
