@<TRIPOS>MOLECULE
FU7
   55    58     1     0     0
SMALL
No Charge or Current Charge


@<TRIPOS>ATOM
      1 C1          -2.1480    -1.2710     0.2300 cp         1 FU7      -0.188500
      2 F1           5.6270    -1.0260     2.7520 f          1 FU7      -0.121500
      3 N1           2.2640    -0.6130    -0.0080 n          1 FU7      -0.443800
      4 O1           3.0220     0.5830     1.7960 o          1 FU7      -0.638100
      5 Cl1         -2.3020    -3.9170     1.0530 cl         1 FU7      -0.169000
      6 C2          -2.5300     0.0870     0.3420 ca         1 FU7       0.188100
      7 F2           6.7870    -1.6910     1.0370 f          1 FU7      -0.121500
      8 N2           0.7100    -2.5240    -2.7070 nb         1 FU7      -0.229000
      9 O2          -1.9290     0.9720    -0.5290 os         1 FU7      -0.344100
     10 Cl2         -5.2480     0.0480     3.3410 cl         1 FU7      -0.184000
     11 C3          -3.4810     0.4940     1.2970 ca         1 FU7      -0.200000
     12 N3          -1.5510    -2.4250    -1.8360 nb         1 FU7      -0.231000
     13 C4          -4.0600    -0.4560     2.1470 ca         1 FU7       0.174000
     14 C5          -3.6950    -1.8050     2.0530 ca         1 FU7      -0.140000
     15 N5           4.5310    -0.0760     0.2260 ns         1 FU7      -0.519900
     16 C6          -2.7470    -2.2120     1.1030 ca         1 FU7       0.189000
     17 N6          -1.3630     4.5160    -1.5290 na         1 FU7       0.119800
     18 C7           0.2330    -1.3770    -0.6960 ca         1 FU7      -0.251300
     19 N7          -2.3370     5.1510    -2.2790 nc         1 FU7      -0.530800
     20 C8           0.8310    -0.6000     0.4370 c5         1 FU7       0.197300
     21 C9           2.5110    -1.3410    -1.3110 c5         1 FU7       0.049700
     22 C10          1.1180    -1.7960    -1.6500 ca         1 FU7       0.139300
     23 C11         -0.6120    -2.7950    -2.7330 ca         1 FU7       0.386900
     24 C12         -1.1370    -1.6930    -0.7780 cp         1 FU7       0.262500
     25 C14         -2.1420     2.3920    -0.4560 c3         1 FU7       0.142600
     26 C15         -1.2650     3.0480    -1.5350 c3         1 FU7       0.085600
     27 C16         -0.5520     5.3900    -0.8110 cc         1 FU7      -0.166000
     28 C17         -1.0470     6.6200    -1.1340 cd         1 FU7      -0.227000
     29 C18         -2.1220     6.4270    -2.0220 cd         1 FU7       0.243900
     30 C19          5.7480     0.4390     0.8780 c3         1 FU7       0.068000
     31 C20          6.4640    -0.6040     1.7760 c3         1 FU7       0.154000
     32 C21          7.7450    -0.0450     2.4260 c3         1 FU7      -0.146100
     33 H3          -3.7850     1.5320     1.3900 ha         1 FU7       0.143000
     34 HN4         -0.4330    -3.6450    -4.5900 hn         1 FU7       0.499000
     35 HN4A        -2.0500    -3.5780    -3.9710 hn         1 FU7       0.499000
     36 H5          -4.1440    -2.5360     2.7200 ha         1 FU7       0.151000
     37 HN5          4.6250    -0.5780    -0.6460 hn         1 FU7       0.320500
     38 H8           0.6940    -1.1070     1.4020 h1         1 FU7       0.066700
     39 H9           2.9090    -0.6740    -2.0870 h1         1 FU7       0.067200
     40 H14         -3.1950     2.6410    -0.6390 h1         1 FU7       0.058700
     41 H14A        -1.8530     2.7780     0.5310 h1         1 FU7       0.058700
     42 H15         -1.5640     2.6760    -2.5220 h1         1 FU7       0.077700
     43 H15A        -0.2180     2.7680    -1.3700 h1         1 FU7       0.077700
     44 H16          0.2610     5.0730    -0.1680 h4         1 FU7       0.156000
     45 H17         -0.6820     7.5770    -0.7740 ha         1 FU7       0.148000
     46 H18         -2.7510     7.1780    -2.4850 h4         1 FU7       0.038100
     47 H19          6.4440     0.7730     0.0960 h1         1 FU7       0.076700
     48 H19A         5.4920     1.3200     1.4810 h1         1 FU7       0.076700
     49 H21          8.4620     0.2720     1.6600 hc         1 FU7       0.063700
     50 H21A         7.5130     0.8190     3.0590 hc         1 FU7       0.063700
     51 H21B         8.2250    -0.8080     3.0500 hc         1 FU7       0.063700
     52 H20          0.4330     0.4220     0.4990 h1         1 FU7       0.066700
     53 H211         3.1860    -2.1980    -1.1820 h1         1 FU7       0.067200
     54 C13          3.2650     0.0060     0.7480 c          1 FU7       0.670100
     55 N4          -1.0500    -3.5280    -3.7890 nv         1 FU7      -1.056900
@<TRIPOS>BOND
     1     1     6 ar  
     2     1    16 ar  
     3     1    24 1   
     4     2    31 1   
     5     3    20 1   
     6     3    21 1   
     7     3    54 1   
     8     4    54 2   
     9     5    16 1   
    10     6     9 1   
    11     6    11 ar  
    12     7    31 1   
    13     8    22 ar  
    14     8    23 ar  
    15     9    25 1   
    16    10    13 1   
    17    11    13 ar  
    18    11    33 1   
    19    12    23 ar  
    20    12    24 ar  
    21    13    14 ar  
    22    14    16 ar  
    23    14    36 1   
    24    15    30 1   
    25    15    37 1   
    26    15    54 1   
    27    17    19 1   
    28    17    26 1   
    29    17    27 1   
    30    18    20 1   
    31    18    22 ar  
    32    18    24 ar  
    33    19    29 2   
    34    20    38 1   
    35    20    52 1   
    36    21    22 1   
    37    21    39 1   
    38    21    53 1   
    39    23    55 1   
    40    25    26 1   
    41    25    40 1   
    42    25    41 1   
    43    26    42 1   
    44    26    43 1   
    45    27    28 2   
    46    27    44 1   
    47    28    29 1   
    48    28    45 1   
    49    29    46 1   
    50    30    31 1   
    51    30    47 1   
    52    30    48 1   
    53    31    32 1   
    54    32    49 1   
    55    32    50 1   
    56    32    51 1   
    57    34    55 1   
    58    35    55 1   
@<TRIPOS>SUBSTRUCTURE
     1 FU7         1 TEMP              0 ****  ****    0 ROOT
