@<TRIPOS>MOLECULE
FUA
   84    87     1     0     0
SMALL
abcg2


@<TRIPOS>ATOM
      1 C1          -1.8850     0.5380     4.1290 c6         1 FUA      -0.065400
      2 C2          -2.0870     0.6780     5.6340 c6         1 FUA      -0.109400
      3 C3          -1.1170    -0.1770     6.4380 c6         1 FUA       0.175300
      4 C4           0.3280     0.0900     6.0180 c6         1 FUA      -0.047700
      5 C5           0.5020    -0.0660     4.4960 c6         1 FUA      -0.049700
      6 C6           1.9680     0.0900     4.0740 c6         1 FUA      -0.062400
      7 C7           2.1730     0.4020     2.5840 c6         1 FUA      -0.069400
      8 C8           1.0420    -0.1260     1.6950 c6         1 FUA      -0.006000
      9 C9          -0.2310     0.6640     2.1220 c6         1 FUA      -0.038700
     10 C10         -0.4450     0.8470     3.6830 c6         1 FUA      -0.015000
     11 C11         -1.4580     0.3360     1.2700 c6         1 FUA       0.177300
     12 C12         -1.1670     0.6100    -0.2130 c6         1 FUA      -0.096400
     13 C13          0.0630    -0.1610    -0.6610 c5         1 FUA      -0.013500
     14 C14          1.3070     0.2010     0.1870 c5         1 FUA      -0.042000
     15 C15          2.3830    -0.6520    -0.5050 c5         1 FUA      -0.092400
     16 C16          2.0320    -0.6060    -1.9990 c5         1 FUA       0.225500
     17 C17          0.5830    -0.1520    -2.0820 c2         1 FUA      -0.167400
     18 C18          1.2920    -0.7940     6.8080 c3         1 FUA      -0.080100
     19 C19         -0.1510     2.3290     3.9800 c3         1 FUA      -0.089100
     20 C20          0.9560    -1.6580     1.8830 c3         1 FUA      -0.074100
     21 C21          1.6920     1.6730    -0.0510 c3         1 FUA      -0.083100
     22 C22         -0.0090     0.1380    -3.2450 ce         1 FUA      -0.120400
     23 C23         -1.4440     0.5800    -3.3780 c3         1 FUA      -0.029200
     24 C24         -2.4110    -0.6120    -3.3780 c3         1 FUA      -0.045200
     25 C25         -3.8440    -0.1810    -3.4380 c2         1 FUA      -0.199200
     26 C26         -4.6750    -0.2380    -4.4820 c2         1 FUA      -0.136400
     27 C27         -6.0900     0.2520    -4.3730 c3         1 FUA      -0.049400
     28 C28         -4.3070    -0.7700    -5.8350 c3         1 FUA      -0.049400
     29 C29          0.7390    -0.0010    -4.5700 c          1 FUA       0.708200
     30 C32          4.4290     1.0010    -4.2820 c3         1 FUA      -0.160100
     31 O1          -1.8730    -1.0040     1.4620 oh         1 FUA      -0.659000
     32 O2           2.8330     0.3440    -2.7210 os         1 FUA      -0.430100
     33 O3           4.3930    -1.1710    -3.2510 o          1 FUA      -0.522000
     34 O4           1.3120    -1.0830    -4.8060 o          1 FUA      -0.721500
     35 O5           0.6850     0.9870    -5.3300 o          1 FUA      -0.721500
     36 O6          -1.3790    -1.5590     6.2670 oh         1 FUA      -0.656000
     37 H11A        -2.1470    -0.4770     3.8270 hc         1 FUA       0.050200
     38 H12         -2.5910     1.2000     3.6220 hc         1 FUA       0.050200
     39 H21         -3.1160     0.4060     5.8940 hc         1 FUA       0.033700
     40 H22         -1.9770     1.7200     5.9490 hc         1 FUA       0.033700
     41 H3          -1.2160     0.0900     7.5020 h1         1 FUA       0.016700
     42 H4           0.5440     1.1290     6.2980 hc         1 FUA       0.040700
     43 H5           0.1950    -1.0930     4.2870 hc         1 FUA       0.074700
     44 H61          2.4360     0.8840     4.6640 hc         1 FUA       0.028200
     45 H62          2.5030    -0.8250     4.3360 hc         1 FUA       0.028200
     46 H71          2.2500     1.4830     2.4580 hc         1 FUA       0.038200
     47 H72          3.1330    -0.0080     2.2540 hc         1 FUA       0.038200
     48 H9          -0.0180     1.6850     1.7950 hc         1 FUA       0.047700
     49 H11         -2.2650     1.0220     1.5620 h1         1 FUA       0.011700
     50 H121        -2.0530     0.3250    -0.7880 hc         1 FUA       0.046200
     51 H122        -1.0370     1.6850    -0.3630 hc         1 FUA       0.046200
     52 H13         -0.1640    -1.2180    -0.4640 hc         1 FUA       0.052700
     53 H151         2.3340    -1.6910    -0.1770 hc         1 FUA       0.045200
     54 H152         3.4010    -0.3080    -0.3090 hc         1 FUA       0.045200
     55 H16          2.1610    -1.5840    -2.4620 h1         1 FUA       0.097700
     56 H181         1.0890    -0.7240     7.8790 hc         1 FUA       0.031700
     57 H182         1.2090    -1.8430     6.5220 hc         1 FUA       0.031700
     58 H183         2.3300    -0.4940     6.6590 hc         1 FUA       0.031700
     59 H191        -0.2710     2.5970     5.0290 hc         1 FUA       0.027700
     60 H192         0.8650     2.6070     3.6970 hc         1 FUA       0.027700
     61 H193        -0.8260     2.9680     3.4060 hc         1 FUA       0.027700
     62 H201         0.2990    -1.9510     2.6940 hc         1 FUA       0.034700
     63 H202         0.5860    -2.1800     1.0030 hc         1 FUA       0.034700
     64 H203         1.9430    -2.0690     2.1040 hc         1 FUA       0.034700
     65 H211         1.6980     1.9060    -1.1150 hc         1 FUA       0.033700
     66 H212         1.0180     2.3910     0.4150 hc         1 FUA       0.033700
     67 H213         2.6950     1.8780     0.3240 hc         1 FUA       0.033700
     68 H231        -1.7250     1.2800    -2.5910 hc         1 FUA       0.044200
     69 H232        -1.5620     1.1260    -4.3150 hc         1 FUA       0.044200
     70 H241        -2.1590    -1.2820    -4.2020 hc         1 FUA       0.049200
     71 H242        -2.2540    -1.1960    -2.4650 hc         1 FUA       0.049200
     72 H25         -4.2290     0.2490    -2.5150 ha         1 FUA       0.146000
     73 H271        -6.7990    -0.5490    -4.6020 hc         1 FUA       0.032700
     74 H272        -6.3190     0.6280    -3.3760 hc         1 FUA       0.032700
     75 H273        -6.2870     1.0520    -5.0910 hc         1 FUA       0.032700
     76 H281        -3.2810    -1.1250    -5.9000 hc         1 FUA       0.032700
     77 H282        -4.9660    -1.5950    -6.1200 hc         1 FUA       0.032700
     78 H283        -4.4380     0.0040    -6.5950 hc         1 FUA       0.032700
     79 H321         5.3990     0.7270    -4.6890 hc         1 FUA       0.063700
     80 H322         3.7260     1.1430    -5.1050 hc         1 FUA       0.063700
     81 H323         4.5130     1.9540    -3.7610 hc         1 FUA       0.063700
     82 HO1         -2.6500    -1.1510     0.9150 ho         1 FUA       0.433000
     83 HO6         -2.3100    -1.7100     6.4560 ho         1 FUA       0.433000
     84 C31          3.9060    -0.0720    -3.3720 c          1 FUA       0.621100
@<TRIPOS>BOND
     1     1     2 1   
     2     1    10 1   
     3     1    37 1   
     4     1    38 1   
     5     2     3 1   
     6     2    39 1   
     7     2    40 1   
     8     3     4 1   
     9     3    36 1   
    10     3    41 1   
    11     4     5 1   
    12     4    18 1   
    13     4    42 1   
    14     5     6 1   
    15     5    10 1   
    16     5    43 1   
    17     6     7 1   
    18     6    44 1   
    19     6    45 1   
    20     7     8 1   
    21     7    46 1   
    22     7    47 1   
    23     8     9 1   
    24     8    14 1   
    25     8    20 1   
    26     9    10 1   
    27     9    11 1   
    28     9    48 1   
    29    10    19 1   
    30    11    12 1   
    31    11    31 1   
    32    11    49 1   
    33    12    13 1   
    34    12    50 1   
    35    12    51 1   
    36    13    14 1   
    37    13    17 1   
    38    13    52 1   
    39    14    15 1   
    40    14    21 1   
    41    15    16 1   
    42    15    53 1   
    43    15    54 1   
    44    16    17 1   
    45    16    32 1   
    46    16    55 1   
    47    17    22 2   
    48    18    56 1   
    49    18    57 1   
    50    18    58 1   
    51    19    59 1   
    52    19    60 1   
    53    19    61 1   
    54    20    62 1   
    55    20    63 1   
    56    20    64 1   
    57    21    65 1   
    58    21    66 1   
    59    21    67 1   
    60    22    23 1   
    61    22    29 1   
    62    23    24 1   
    63    23    68 1   
    64    23    69 1   
    65    24    25 1   
    66    24    70 1   
    67    24    71 1   
    68    25    26 2   
    69    25    72 1   
    70    26    27 1   
    71    26    28 1   
    72    27    73 1   
    73    27    74 1   
    74    27    75 1   
    75    28    76 1   
    76    28    77 1   
    77    28    78 1   
    78    29    34 1   
    79    29    35 1   
    80    30    79 1   
    81    30    80 1   
    82    30    81 1   
    83    30    84 1   
    84    31    82 1   
    85    32    84 1   
    86    33    84 2   
    87    36    83 1   
@<TRIPOS>SUBSTRUCTURE
     1 FUA         1 TEMP              0 ****  ****    0 ROOT
