@<TRIPOS>MOLECULE
FUA
   84    87     1     0     0
SMALL
No Charge or Current Charge


@<TRIPOS>ATOM
      1 C1          -1.8770     0.3310     4.1120 c6         1 FUA      -0.065400
      2 C2          -2.1050     0.4590     5.6480 c6         1 FUA      -0.109400
      3 C3          -1.0120    -0.2560     6.4850 c6         1 FUA       0.175300
      4 C4           0.4340     0.1650     6.0570 c6         1 FUA      -0.047700
      5 C5           0.6070     0.0040     4.4830 c6         1 FUA      -0.049700
      6 C6           2.0610     0.2580     4.0000 c6         1 FUA      -0.062400
      7 C7           2.2280     0.3470     2.4520 c6         1 FUA      -0.069400
      8 C8           1.0100    -0.1490     1.5830 c6         1 FUA      -0.006000
      9 C9          -0.2570     0.7000     2.0220 c6         1 FUA      -0.038700
     10 C10         -0.4690     0.8320     3.6350 c6         1 FUA      -0.015000
     11 C11         -1.5210     0.4820     1.1030 c6         1 FUA       0.177300
     12 C12         -1.1840     0.6810    -0.4110 c6         1 FUA      -0.096400
     13 C13          0.0270    -0.2030    -0.8600 c5         1 FUA      -0.013500
     14 C14          1.2950     0.1260     0.0160 c5         1 FUA      -0.042000
     15 C15          2.3340    -0.8520    -0.6600 c5         1 FUA      -0.092400
     16 C16          2.0530    -0.7120    -2.1970 c5         1 FUA       0.225500
     17 C17          0.5920    -0.2490    -2.3090 c2         1 FUA      -0.167400
     18 C18          1.5060    -0.5700     6.9600 c3         1 FUA      -0.080100
     19 C19         -0.3530     2.3730     3.9640 c3         1 FUA      -0.089100
     20 C20          0.7790    -1.6980     1.8410 c3         1 FUA      -0.074100
     21 C21          1.7870     1.6140    -0.2420 c3         1 FUA      -0.083100
     22 C22         -0.0680    -0.0700    -3.5150 ce         1 FUA      -0.120400
     23 C23         -1.5340     0.3870    -3.5930 c3         1 FUA      -0.029200
     24 C24         -2.5360    -0.7710    -3.3800 c3         1 FUA      -0.045200
     25 C25         -3.9750    -0.2890    -3.3180 c2         1 FUA      -0.199200
     26 C26         -4.8300    -0.1230    -4.3450 c2         1 FUA      -0.136400
     27 C27         -6.2610     0.3430    -4.1420 c3         1 FUA      -0.049400
     28 C28         -4.5060    -0.3650    -5.8120 c3         1 FUA      -0.049400
     29 C29          0.5780    -0.3280    -4.8950 c          1 FUA       0.708200
     30 C32          5.0210     1.1520    -3.4860 c3         1 FUA      -0.160100
     31 O1          -2.1330    -0.8040     1.2770 oh         1 FUA      -0.659000
     32 O2           2.9050     0.3390    -2.7310 os         1 FUA      -0.430100
     33 O3           4.6900    -1.1320    -2.7520 o          1 FUA      -0.522000
     34 O4           1.6240    -0.9510    -4.9850 o          1 FUA      -0.721500
     35 O5          -0.0120     0.0250    -5.9070 o          1 FUA      -0.721500
     36 O6          -1.1920    -1.6760     6.3910 oh         1 FUA      -0.656000
     37 H11A        -2.0040    -0.7240     3.8390 hc         1 FUA       0.050200
     38 H12         -2.6750     0.8830     3.5980 hc         1 FUA       0.050200
     39 H21         -3.0910     0.0460     5.9010 hc         1 FUA       0.033700
     40 H22         -2.1590     1.5150     5.9410 hc         1 FUA       0.033700
     41 H3          -1.1530     0.0430     7.5340 h1         1 FUA       0.016700
     42 H4           0.5630     1.2230     6.3140 hc         1 FUA       0.040700
     43 H5           0.4210    -1.0610     4.3320 hc         1 FUA       0.074700
     44 H61          2.4470     1.1810     4.4540 hc         1 FUA       0.028200
     45 H62          2.7060    -0.5490     4.3740 hc         1 FUA       0.028200
     46 H71          2.4250     1.4040     2.2410 hc         1 FUA       0.038200
     47 H72          3.1440    -0.1820     2.1550 hc         1 FUA       0.038200
     48 H9          -0.0050     1.7210     1.7430 hc         1 FUA       0.047700
     49 H11         -2.2580     1.2540     1.3660 h1         1 FUA       0.011700
     50 H121        -2.0930     0.4280    -0.9610 hc         1 FUA       0.046200
     51 H122        -0.9780     1.7410    -0.6110 hc         1 FUA       0.046200
     52 H13         -0.3360    -1.2170    -0.6710 hc         1 FUA       0.052700
     53 H151         2.1940    -1.8980    -0.3770 hc         1 FUA       0.045200
     54 H152         3.3670    -0.6110    -0.3870 hc         1 FUA       0.045200
     55 H16          2.2320    -1.6610    -2.7220 h1         1 FUA       0.097700
     56 H181         1.2700    -0.4580     8.0250 hc         1 FUA       0.031700
     57 H182         1.5520    -1.6430     6.7370 hc         1 FUA       0.031700
     58 H183         2.5090    -0.1560     6.8040 hc         1 FUA       0.031700
     59 H191        -0.4910     2.6190     5.0200 hc         1 FUA       0.027700
     60 H192         0.6280     2.7720     3.6810 hc         1 FUA       0.027700
     61 H193        -1.1070     2.9480     3.4130 hc         1 FUA       0.027700
     62 H201        -0.0540    -1.9020     2.5170 hc         1 FUA       0.034700
     63 H202         0.5190    -2.2680     0.9470 hc         1 FUA       0.034700
     64 H203         1.6720    -2.1780     2.2580 hc         1 FUA       0.034700
     65 H211         1.6710     1.9210    -1.2860 hc         1 FUA       0.033700
     66 H212         1.2580     2.3870     0.3160 hc         1 FUA       0.033700
     67 H213         2.8500     1.7270    -0.0020 hc         1 FUA       0.033700
     68 H231        -1.7240     1.2070    -2.8980 hc         1 FUA       0.044200
     69 H232        -1.7780     0.8530    -4.5530 hc         1 FUA       0.044200
     70 H241        -2.4040    -1.5030    -4.1850 hc         1 FUA       0.049200
     71 H242        -2.2890    -1.3130    -2.4590 hc         1 FUA       0.049200
     72 H25         -4.3120    -0.0820    -2.3020 ha         1 FUA       0.146000
     73 H271        -6.9750    -0.4010    -4.5160 hc         1 FUA       0.032700
     74 H272        -6.4880     0.5130    -3.0830 hc         1 FUA       0.032700
     75 H273        -6.4490     1.2840    -4.6730 hc         1 FUA       0.032700
     76 H281        -3.4600    -0.6430    -5.9780 hc         1 FUA       0.032700
     77 H282        -5.1280    -1.1680    -6.2230 hc         1 FUA       0.032700
     78 H283        -4.6930     0.5370    -6.4070 hc         1 FUA       0.032700
     79 H321         6.0690     0.8930    -3.6690 hc         1 FUA       0.063700
     80 H322         4.5320     1.5370    -4.3870 hc         1 FUA       0.063700
     81 H323         4.9230     1.9940    -2.7910 hc         1 FUA       0.063700
     82 HO1         -2.9390    -0.8100     0.7200 ho         1 FUA       0.433000
     83 HO6         -2.1140    -1.8590     6.6740 ho         1 FUA       0.433000
     84 C31          4.2110    -0.0220    -2.9510 c          1 FUA       0.621100
@<TRIPOS>BOND
     1     1     2 1   
     2     1    10 1   
     3     1    37 1   
     4     1    38 1   
     5     2     3 1   
     6     2    39 1   
     7     2    40 1   
     8     3     4 1   
     9     3    36 1   
    10     3    41 1   
    11     4     5 1   
    12     4    18 1   
    13     4    42 1   
    14     5     6 1   
    15     5    10 1   
    16     5    43 1   
    17     6     7 1   
    18     6    44 1   
    19     6    45 1   
    20     7     8 1   
    21     7    46 1   
    22     7    47 1   
    23     8     9 1   
    24     8    14 1   
    25     8    20 1   
    26     9    10 1   
    27     9    11 1   
    28     9    48 1   
    29    10    19 1   
    30    11    12 1   
    31    11    31 1   
    32    11    49 1   
    33    12    13 1   
    34    12    50 1   
    35    12    51 1   
    36    13    14 1   
    37    13    17 1   
    38    13    52 1   
    39    14    15 1   
    40    14    21 1   
    41    15    16 1   
    42    15    53 1   
    43    15    54 1   
    44    16    17 1   
    45    16    32 1   
    46    16    55 1   
    47    17    22 2   
    48    18    56 1   
    49    18    57 1   
    50    18    58 1   
    51    19    59 1   
    52    19    60 1   
    53    19    61 1   
    54    20    62 1   
    55    20    63 1   
    56    20    64 1   
    57    21    65 1   
    58    21    66 1   
    59    21    67 1   
    60    22    23 1   
    61    22    29 1   
    62    23    24 1   
    63    23    68 1   
    64    23    69 1   
    65    24    25 1   
    66    24    70 1   
    67    24    71 1   
    68    25    26 2   
    69    25    72 1   
    70    26    27 1   
    71    26    28 1   
    72    27    73 1   
    73    27    74 1   
    74    27    75 1   
    75    28    76 1   
    76    28    77 1   
    77    28    78 1   
    78    29    34 1   
    79    29    35 1   
    80    30    79 1   
    81    30    80 1   
    82    30    81 1   
    83    30    84 1   
    84    31    82 1   
    85    32    84 1   
    86    33    84 2   
    87    36    83 1   
@<TRIPOS>SUBSTRUCTURE
     1 FUA         1 TEMP              0 ****  ****    0 ROOT
