@<TRIPOS>MOLECULE
FUB
   20    20     1     0     0
SMALL
abcg2


@<TRIPOS>ATOM
      1 O5         -17.1070     3.7130     3.6510 oh         1 FUB      -0.692000
      2 C5         -17.7870     3.7540     2.4220 c3         1 FUB       0.157600
      3 C4         -17.1570     2.9230     1.3190 c5         1 FUB       0.092300
      4 O4         -17.1150     1.5460     1.6860 os         1 FUB      -0.428000
      5 C3         -15.7240     3.2910     0.9230 c5         1 FUB       0.139300
      6 O3         -15.6400     4.2850    -0.0600 oh         1 FUB      -0.700000
      7 C2         -15.2110     1.9600     0.4080 c5         1 FUB       0.095300
      8 O2         -13.8110     1.9110     0.4180 oh         1 FUB      -0.706000
      9 C1         -15.8720     0.9830     1.3930 c5         1 FUB       0.359300
     10 O1         -15.1240     0.8610     2.5660 oh         1 FUB      -0.724000
     11 HO5        -16.3300     4.2760     3.6020 ho         1 FUB       0.493000
     12 H51        -18.7970     3.3790     2.6060 h1         1 FUB       0.049200
     13 H52        -17.9020     4.7780     2.0430 h1         1 FUB       0.049200
     14 H4         -17.7920     3.0390     0.4300 h1         1 FUB       0.063700
     15 H3         -15.1370     3.5650     1.8120 h1         1 FUB       0.059700
     16 HO3        -15.7920     5.1410     0.3530 ho         1 FUB       0.510000
     17 H2         -15.6190     1.7840    -0.5960 h1         1 FUB       0.065700
     18 HO2        -13.5170     1.2000    -0.1620 ho         1 FUB       0.517000
     19 H1         -16.0470    -0.0080     0.9550 h2         1 FUB       0.075700
     20 HO1        -14.2020     1.0540     2.3500 ho         1 FUB       0.523000
@<TRIPOS>BOND
     1     1     2 1   
     2     1    11 1   
     3     2     3 1   
     4     2    12 1   
     5     2    13 1   
     6     3     4 1   
     7     3     5 1   
     8     3    14 1   
     9     4     9 1   
    10     5     6 1   
    11     5     7 1   
    12     5    15 1   
    13     6    16 1   
    14     7     8 1   
    15     7     9 1   
    16     7    17 1   
    17     8    18 1   
    18     9    10 1   
    19     9    19 1   
    20    10    20 1   
@<TRIPOS>SUBSTRUCTURE
     1 FUB         1 TEMP              0 ****  ****    0 ROOT
