@<TRIPOS>MOLECULE
FUB
   20    20     1     0     0
SMALL
No Charge or Current Charge


@<TRIPOS>ATOM
      1 O5         -17.3010     4.0550     3.6060 oh         1 FUB      -0.692000
      2 C5         -17.9960     3.7840     2.3710 c3         1 FUB       0.157600
      3 C4         -17.1920     2.8460     1.4220 c5         1 FUB       0.092300
      4 O4         -17.0970     1.4980     1.9580 os         1 FUB      -0.428000
      5 C3         -15.7250     3.2520     1.0990 c5         1 FUB       0.139300
      6 O3         -15.6160     4.3650     0.1990 oh         1 FUB      -0.700000
      7 C2         -15.2660     1.9040     0.4640 c5         1 FUB       0.095300
      8 O2         -13.8320     1.7870     0.3230 oh         1 FUB      -0.706000
      9 C1         -15.8590     0.9020     1.5120 c5         1 FUB       0.359300
     10 O1         -14.9700     0.8020     2.6120 oh         1 FUB      -0.724000
     11 HO5        -16.5810     4.6930     3.3990 ho         1 FUB       0.493000
     12 H51        -18.9680     3.3150     2.5770 h1         1 FUB       0.049200
     13 H52        -18.1990     4.7240     1.8380 h1         1 FUB       0.049200
     14 H4         -17.7620     2.7810     0.4840 h1         1 FUB       0.063700
     15 H3         -15.1660     3.4550     2.0240 h1         1 FUB       0.059700
     16 HO3        -14.6540     4.5500     0.0890 ho         1 FUB       0.510000
     17 H2         -15.7590     1.7460    -0.5070 h1         1 FUB       0.065700
     18 HO2        -13.6020     2.0500    -0.6010 ho         1 FUB       0.517000
     19 H1         -16.0350    -0.0860     1.0640 h2         1 FUB       0.075700
     20 HO1        -14.1030     1.0150     2.1880 ho         1 FUB       0.523000
@<TRIPOS>BOND
     1     1     2 1   
     2     1    11 1   
     3     2     3 1   
     4     2    12 1   
     5     2    13 1   
     6     3     4 1   
     7     3     5 1   
     8     3    14 1   
     9     4     9 1   
    10     5     6 1   
    11     5     7 1   
    12     5    15 1   
    13     6    16 1   
    14     7     8 1   
    15     7     9 1   
    16     7    17 1   
    17     8    18 1   
    18     9    10 1   
    19     9    19 1   
    20    10    20 1   
@<TRIPOS>SUBSTRUCTURE
     1 FUB         1 TEMP              0 ****  ****    0 ROOT
