@<TRIPOS>MOLECULE
FUC
   23    23     1     0     0
SMALL
abcg2


@<TRIPOS>ATOM
      1 C1          -7.4020    -4.6760     4.0560 c6         1 FUC       0.387300
      2 C2          -7.9510    -3.2760     4.3300 c6         1 FUC       0.163300
      3 C3          -8.0560    -2.4880     3.0290 c6         1 FUC       0.141300
      4 C4          -8.9010    -3.2640     2.0180 c6         1 FUC       0.114300
      5 C5          -8.2870    -4.6540     1.8370 c6         1 FUC       0.141300
      6 C6          -9.0910    -5.5470     0.9150 c3         1 FUC      -0.093100
      7 O1          -6.0650    -4.5630     3.6850 oh         1 FUC      -0.726000
      8 O2          -7.1160    -2.6540     5.2720 oh         1 FUC      -0.706000
      9 O3          -8.5880    -1.2230     3.3420 oh         1 FUC      -0.711000
     10 O4         -10.2270    -3.3090     2.4870 oh         1 FUC      -0.697000
     11 O5          -8.1790    -5.3240     3.0870 os         1 FUC      -0.476000
     12 H1          -7.5080    -5.2930     4.9570 h2         1 FUC       0.076700
     13 H2          -8.9630    -3.4110     4.7370 h1         1 FUC       0.069700
     14 H3          -7.0490    -2.3870     2.5980 h1         1 FUC       0.057700
     15 H4          -8.8450    -2.7490     1.0460 h1         1 FUC       0.030700
     16 H5          -7.2910    -4.5120     1.3960 h1         1 FUC       0.048700
     17 H61         -8.5730    -6.4900     0.7390 hc         1 FUC       0.045700
     18 H62        -10.0740    -5.7780     1.3270 hc         1 FUC       0.045700
     19 H63         -9.2300    -5.0620    -0.0520 hc         1 FUC       0.045700
     20 HO1         -5.6680    -5.4400     3.6810 ho         1 FUC       0.512000
     21 HO2         -7.4990    -1.7960     5.4810 ho         1 FUC       0.520000
     22 HO3         -8.4640    -0.6400     2.5860 ho         1 FUC       0.507000
     23 HO4        -10.7980    -3.6090     1.7740 ho         1 FUC       0.502000
@<TRIPOS>BOND
     1     1     2 1   
     2     1     7 1   
     3     1    11 1   
     4     1    12 1   
     5     2     3 1   
     6     2     8 1   
     7     2    13 1   
     8     3     4 1   
     9     3     9 1   
    10     3    14 1   
    11     4     5 1   
    12     4    10 1   
    13     4    15 1   
    14     5     6 1   
    15     5    11 1   
    16     5    16 1   
    17     6    17 1   
    18     6    18 1   
    19     6    19 1   
    20     7    20 1   
    21     8    21 1   
    22     9    22 1   
    23    10    23 1   
@<TRIPOS>SUBSTRUCTURE
     1 FUC         1 TEMP              0 ****  ****    0 ROOT
