@<TRIPOS>MOLECULE
FUC
   23    23     1     0     0
SMALL
No Charge or Current Charge


@<TRIPOS>ATOM
      1 C1          -7.4580    -4.7080     4.1520 c6         1 FUC       0.387300
      2 C2          -7.9250    -3.2220     4.3890 c6         1 FUC       0.163300
      3 C3          -7.9230    -2.4250     3.0460 c6         1 FUC       0.141300
      4 C4          -8.7710    -3.1700     1.9720 c6         1 FUC       0.114300
      5 C5          -8.2300    -4.6350     1.8360 c6         1 FUC       0.141300
      6 C6          -9.0430    -5.5040     0.8420 c3         1 FUC      -0.093100
      7 O1          -6.0920    -4.8110     3.7390 oh         1 FUC      -0.726000
      8 O2          -7.1460    -2.5190     5.3880 oh         1 FUC      -0.706000
      9 O3          -8.4650    -1.1060     3.2480 oh         1 FUC      -0.711000
     10 O4         -10.1650    -3.1170     2.3570 oh         1 FUC      -0.697000
     11 O5          -8.2540    -5.3200     3.1150 os         1 FUC      -0.476000
     12 H1          -7.6020    -5.2680     5.0900 h2         1 FUC       0.076700
     13 H2          -8.9680    -3.2820     4.7340 h1         1 FUC       0.069700
     14 H3          -6.8860    -2.3550     2.6820 h1         1 FUC       0.057700
     15 H4          -8.6350    -2.6630     1.0050 h1         1 FUC       0.030700
     16 H5          -7.1960    -4.5950     1.4630 h1         1 FUC       0.048700
     17 H61         -8.5670    -6.4820     0.7050 hc         1 FUC       0.045700
     18 H62        -10.0660    -5.6810     1.1950 hc         1 FUC       0.045700
     19 H63         -9.1000    -5.0260    -0.1430 hc         1 FUC       0.045700
     20 HO1         -5.9670    -5.7660     3.5440 ho         1 FUC       0.512000
     21 HO2         -7.2780    -1.5640     5.1750 ho         1 FUC       0.520000
     22 HO3         -9.4280    -1.2210     3.0520 ho         1 FUC       0.507000
     23 HO4        -10.6590    -3.7050     1.7410 ho         1 FUC       0.502000
@<TRIPOS>BOND
     1     1     2 1   
     2     1     7 1   
     3     1    11 1   
     4     1    12 1   
     5     2     3 1   
     6     2     8 1   
     7     2    13 1   
     8     3     4 1   
     9     3     9 1   
    10     3    14 1   
    11     4     5 1   
    12     4    10 1   
    13     4    15 1   
    14     5     6 1   
    15     5    11 1   
    16     5    16 1   
    17     6    17 1   
    18     6    18 1   
    19     6    19 1   
    20     7    20 1   
    21     8    21 1   
    22     9    22 1   
    23    10    23 1   
@<TRIPOS>SUBSTRUCTURE
     1 FUC         1 TEMP              0 ****  ****    0 ROOT
