@<TRIPOS>MOLECULE
FUD
   24    23     1     0     0
SMALL
No Charge or Current Charge


@<TRIPOS>ATOM
      1 C1           2.4840     1.0650    -0.4850 c3         1 FUD       0.066600
      2 C2           2.0920    -0.3030     0.1520 c          1 FUD       0.538100
      3 C3           0.6360    -0.7980    -0.1280 c3         1 FUD       0.045300
      4 C4          -0.4300     0.1730     0.4590 c3         1 FUD       0.130300
      5 C5          -1.8110     0.0770    -0.2640 c3         1 FUD       0.142300
      6 C6          -2.8980     0.9890     0.3680 c3         1 FUD       0.129600
      7 O1           3.8710     1.1400    -0.9000 oh         1 FUD      -0.627000
      8 O2           2.9090    -1.0090     0.7410 o          1 FUD      -0.486100
      9 O3           0.3690    -2.1440     0.3870 oh         1 FUD      -0.709000
     10 O4          -0.5580    -0.1700     1.8450 oh         1 FUD      -0.717000
     11 O5          -1.6850     0.4670    -1.6430 oh         1 FUD      -0.688000
     12 O6          -4.0630     1.0130    -0.4800 oh         1 FUD      -0.705000
     13 H11          1.8250     1.2330    -1.3480 h1         1 FUD       0.042700
     14 H12          2.2580     1.8460     0.2530 h1         1 FUD       0.042700
     15 H3           0.5400    -0.7890    -1.2230 h1         1 FUD       0.081700
     16 H4          -0.0820     1.2100     0.3580 h1         1 FUD       0.062700
     17 H5          -2.1640    -0.9620    -0.1950 h1         1 FUD       0.104700
     18 H61         -3.1580     0.6050     1.3640 h1         1 FUD       0.025200
     19 H62         -2.4970     2.0030     0.4940 h1         1 FUD       0.025200
     20 HO1          4.0240     2.0400    -1.2670 ho         1 FUD       0.449000
     21 HO3          1.1110    -2.7330     0.0970 ho         1 FUD       0.532000
     22 HO4         -0.3350    -1.1380     1.8440 ho         1 FUD       0.522000
     23 HO5         -2.5950     0.7810    -1.8690 ho         1 FUD       0.491000
     24 HO6         -4.7610     1.5220    -0.0010 ho         1 FUD       0.504000
@<TRIPOS>BOND
     1     1     2 1   
     2     1     7 1   
     3     1    13 1   
     4     1    14 1   
     5     2     3 1   
     6     2     8 2   
     7     3     4 1   
     8     3     9 1   
     9     3    15 1   
    10     4     5 1   
    11     4    10 1   
    12     4    16 1   
    13     5     6 1   
    14     5    11 1   
    15     5    17 1   
    16     6    12 1   
    17     6    18 1   
    18     6    19 1   
    19     7    20 1   
    20     9    21 1   
    21    10    22 1   
    22    11    23 1   
    23    12    24 1   
@<TRIPOS>SUBSTRUCTURE
     1 FUD         1 TEMP              0 ****  ****    0 ROOT
