@<TRIPOS>MOLECULE
FUD
   24    23     1     0     0
SMALL
abcg2


@<TRIPOS>ATOM
      1 C1           2.4240     1.0360    -0.4260 c3         1 FUD       0.066600
      2 C2           1.9750    -0.3580    -0.0870 c          1 FUD       0.538100
      3 C3           0.5480    -0.7370    -0.4470 c3         1 FUD       0.045300
      4 C4          -0.4380     0.2470     0.1890 c3         1 FUD       0.130300
      5 C5          -1.8980    -0.0870    -0.1650 c3         1 FUD       0.142300
      6 C6          -2.8320     0.9910     0.3640 c3         1 FUD       0.129600
      7 O1           3.8130     1.1120    -0.3350 oh         1 FUD      -0.627000
      8 O2           2.7080    -1.1730     0.4220 o          1 FUD      -0.486100
      9 O3           0.2640    -2.0350    -0.0150 oh         1 FUD      -0.709000
     10 O4          -0.2360     0.3070     1.5800 oh         1 FUD      -0.717000
     11 O5          -2.0550    -0.2830    -1.5500 oh         1 FUD      -0.688000
     12 O6          -4.1610     0.6010     0.1140 oh         1 FUD      -0.705000
     13 H11          2.0410     1.2900    -1.4240 h1         1 FUD       0.042700
     14 H12          1.9200     1.7180     0.2760 h1         1 FUD       0.042700
     15 H3           0.4750    -0.6600    -1.5420 h1         1 FUD       0.081700
     16 H4          -0.2210     1.2510    -0.1950 h1         1 FUD       0.062700
     17 H5          -2.1650    -1.0400     0.3040 h1         1 FUD       0.104700
     18 H61         -2.6460     1.1330     1.4340 h1         1 FUD       0.025200
     19 H62         -2.5880     1.9450    -0.1300 h1         1 FUD       0.025200
     20 HO1          4.0700     2.0220    -0.5080 ho         1 FUD       0.449000
     21 HO3          1.0880    -2.4230     0.3110 ho         1 FUD       0.532000
     22 HO4         -0.3590    -0.5810     1.9380 ho         1 FUD       0.522000
     23 HO5         -1.9040     0.5550    -2.0020 ho         1 FUD       0.491000
     24 HO6         -4.7400     1.2890     0.4520 ho         1 FUD       0.504000
@<TRIPOS>BOND
     1     1     2 1   
     2     1     7 1   
     3     1    13 1   
     4     1    14 1   
     5     2     3 1   
     6     2     8 2   
     7     3     4 1   
     8     3     9 1   
     9     3    15 1   
    10     4     5 1   
    11     4    10 1   
    12     4    16 1   
    13     5     6 1   
    14     5    11 1   
    15     5    17 1   
    16     6    12 1   
    17     6    18 1   
    18     6    19 1   
    19     7    20 1   
    20     9    21 1   
    21    10    22 1   
    22    11    23 1   
    23    12    24 1   
@<TRIPOS>SUBSTRUCTURE
     1 FUD         1 TEMP              0 ****  ****    0 ROOT
