@<TRIPOS>MOLECULE
FUE
   76    81     1     0     0
SMALL
No Charge or Current Charge


@<TRIPOS>ATOM
      1 C1          -4.9500     3.1250    -2.8760 c3         1 FUE      -0.090100
      2 C2          -4.0060     2.0570    -2.2720 c6         1 FUE       0.165500
      3 C3          -2.5150     2.3000    -2.6830 c6         1 FUE       0.165800
      4 N4          -1.5790     1.2500    -2.1610 n3         1 FUE      -0.702600
      5 C5          -0.1460     1.5290    -2.5380 c3         1 FUE       0.085800
      6 C6           0.4540     2.9020    -2.0920 c          1 FUE       0.607100
      7 C10          1.4250     3.7980     1.4130 c5         1 FUE      -0.107300
      8 C11          2.3190     4.8730     2.0850 c3         1 FUE      -0.077100
      9 C12          0.2190     3.4970     2.3420 c3         1 FUE      -0.077100
     10 C13          2.1890     2.5110     1.0950 ca         1 FUE       0.309300
     11 C15          3.5340     0.6850     1.5250 ca         1 FUE       0.308900
     12 C16          3.3880     0.2050     0.2020 ca         1 FUE      -0.100300
     13 C19          2.3510    -2.7240    -1.2830 ca         1 FUE      -0.082000
     14 C21          1.0230    -4.2450     0.0710 ca         1 FUE       0.175000
     15 C23          1.6450    -3.7650     1.2320 ca         1 FUE      -0.151000
     16 C24          2.6250    -2.7620     1.1370 ca         1 FUE      -0.082000
     17 C25          2.6010     0.9410    -0.7070 ca         1 FUE      -0.117000
     18 C26          1.9950     2.1090    -0.2170 ca         1 FUE      -0.063000
     19 C27         -2.0680    -0.1290    -2.5520 c6         1 FUE       0.162500
     20 C28         -1.2190    -1.3150    -1.9830 c3         1 FUE       0.109000
     21 C31         -0.6070    -1.1760     1.7240 ca         1 FUE      -0.075300
     22 C35         -1.9550    -2.9340     2.7420 ca         1 FUE      -0.039000
     23 C36         -1.5240    -2.2070     1.6240 ca         1 FUE      -0.164600
     24 C37         -1.8920    -2.3710     0.2060 c          1 FUE       0.578600
     25 C39         -3.5710    -0.3480    -2.1550 c6         1 FUE       0.158800
     26 O7           0.2740     3.9150    -2.7630 o          1 FUE      -0.562100
     27 N8           1.0660     2.9920    -0.8190 n          1 FUE      -0.223400
     28 C9           0.9440     4.2450    -0.0400 c5         1 FUE       0.095000
     29 N14          2.9520     1.8240     1.9740 nb         1 FUE      -0.626000
     30 C18          2.9840    -2.2370    -0.1220 ca         1 FUE      -0.100300
     31 C20          1.3720    -3.7290    -1.1860 ca         1 FUE      -0.151000
     32 N29         -1.1540    -1.4140    -0.5070 n          1 FUE      -0.411800
     33 C30         -0.2930    -0.5650     0.3690 c5         1 FUE       0.135300
     34 C32         -0.0700    -0.8200     2.9700 ca         1 FUE      -0.100000
     35 C33         -0.4860    -1.5330     4.1140 ca         1 FUE      -0.088000
     36 C34         -1.4240    -2.5850     4.0010 ca         1 FUE      -0.126000
     37 N40         -4.4770     0.7110    -2.6800 n7         1 FUE      -0.865400
     38 H41         -5.9850     2.9720    -2.5480 hc         1 FUE       0.040033
     39 H42         -4.6510     4.1330    -2.5630 hc         1 FUE       0.040033
     40 H43         -4.9360     3.0980    -3.9720 hc         1 FUE       0.040033
     41 H44         -4.0710     2.1340    -1.1760 h1         1 FUE       0.039700
     42 H46         -2.4550     2.3420    -3.7810 h1         1 FUE       0.044200
     43 H45         -2.2250     3.2920    -2.3090 h1         1 FUE       0.044200
     44 H48          0.4830     0.7480    -2.1170 h1         1 FUE       0.055200
     45 H47         -0.0280     1.4740    -3.6280 h1         1 FUE       0.055200
     46 H53          1.7720     5.8130     2.2270 hc         1 FUE       0.044200
     47 H51          2.6740     4.5410     3.0680 hc         1 FUE       0.044200
     48 H52          3.2020     5.0910     1.4720 hc         1 FUE       0.044200
     49 H55         -0.4400     2.7390     1.9020 hc         1 FUE       0.044200
     50 H56          0.5510     3.1190     3.3170 hc         1 FUE       0.044200
     51 H54         -0.3830     4.3970     2.5200 hc         1 FUE       0.044200
     52 H57          4.1260     0.1320     2.2530 h4         1 FUE       0.023100
     53 H60          2.6100    -2.3190    -2.2600 ha         1 FUE       0.117000
     54 H62          1.3620    -4.1620     2.2030 ha         1 FUE       0.135000
     55 H63          3.0980    -2.3850     2.0420 ha         1 FUE       0.117000
     56 H64          2.4900     0.6060    -1.7340 ha         1 FUE       0.125000
     57 H65         -2.0130    -0.2140    -3.6480 h1         1 FUE       0.038700
     58 H67         -1.6310    -2.2490    -2.3860 h1         1 FUE       0.056700
     59 H66         -0.1960    -1.2460    -2.3710 h1         1 FUE       0.056700
     60 H73         -2.6730    -3.7460     2.6410 ha         1 FUE       0.133000
     61 H74         -3.9070    -1.3290    -2.5230 h1         1 FUE       0.050200
     62 H75         -3.6490    -0.3690    -1.0580 h1         1 FUE       0.050200
     63 H50         -0.0840     4.6330    -0.0400 h1         1 FUE       0.066700
     64 H49          1.6000     5.0160    -0.4660 h1         1 FUE       0.066700
     65 H61          0.8820    -4.1040    -2.0800 ha         1 FUE       0.135000
     66 H69         -0.5720     0.4960     0.3250 h1         1 FUE       0.076700
     67 H68          0.7660    -0.6790     0.1200 h1         1 FUE       0.076700
     68 H70          0.6550    -0.0140     3.0520 ha         1 FUE       0.122000
     69 H71         -0.0800    -1.2730     5.0890 ha         1 FUE       0.114000
     70 H72         -1.7370    -3.1300     4.8890 ha         1 FUE       0.117000
     71 H77         -5.4220     0.5590    -2.3050 hn         1 FUE       0.416000
     72 C17          4.0130    -1.1170    -0.2140 c3         1 FUE       0.020200
     73 O38         -2.6860    -3.1770    -0.2600 o          1 FUE      -0.555000
     74 F22          0.0800    -5.2080     0.1640 f          1 FUE      -0.174000
     75 H59          4.4110    -1.0410    -1.2330 hc         1 FUE       0.060700
     76 H58          4.8760    -1.3490     0.4230 hc         1 FUE       0.060700
@<TRIPOS>BOND
     1     1     2 1   
     2     1    38 1   
     3     1    39 1   
     4     1    40 1   
     5     2     3 1   
     6     2    37 1   
     7     2    41 1   
     8     3     4 1   
     9     3    42 1   
    10     3    43 1   
    11     4     5 1   
    12     4    19 1   
    13     5     6 1   
    14     5    44 1   
    15     5    45 1   
    16     6    26 2   
    17     6    27 1   
    18     7     8 1   
    19     7     9 1   
    20     7    10 1   
    21     7    28 1   
    22     8    46 1   
    23     8    47 1   
    24     8    48 1   
    25     9    49 1   
    26     9    50 1   
    27     9    51 1   
    28    10    18 ar  
    29    10    29 ar  
    30    11    12 ar  
    31    11    29 ar  
    32    11    52 1   
    33    12    17 ar  
    34    12    72 1   
    35    13    30 ar  
    36    13    31 ar  
    37    13    53 1   
    38    14    15 ar  
    39    14    31 ar  
    40    14    74 1   
    41    15    16 ar  
    42    15    54 1   
    43    16    30 ar  
    44    16    55 1   
    45    17    18 ar  
    46    17    56 1   
    47    18    27 1   
    48    19    20 1   
    49    19    25 1   
    50    19    57 1   
    51    20    32 1   
    52    20    58 1   
    53    20    59 1   
    54    21    23 ar  
    55    21    33 1   
    56    21    34 ar  
    57    22    23 ar  
    58    22    36 ar  
    59    22    60 1   
    60    23    24 1   
    61    24    32 1   
    62    24    73 2   
    63    25    37 1   
    64    25    61 1   
    65    25    62 1   
    66    27    28 1   
    67    28    63 1   
    68    28    64 1   
    69    30    72 1   
    70    31    65 1   
    71    32    33 1   
    72    33    66 1   
    73    33    67 1   
    74    34    35 ar  
    75    34    68 1   
    76    35    36 ar  
    77    35    69 1   
    78    36    70 1   
    79    37    71 1   
    80    72    75 1   
    81    72    76 1   
@<TRIPOS>SUBSTRUCTURE
     1 FUE         1 TEMP              0 ****  ****    0 ROOT
