@<TRIPOS>MOLECULE
FUE
   76    81     1     0     0
SMALL
bcc


@<TRIPOS>ATOM
      1 C1          -4.0460     2.7510    -3.6790 c3         1 FUE      -0.090100
      2 C2          -3.6180     1.6540    -2.7210 c6         1 FUE       0.165500
      3 C3          -2.1830     1.8620    -2.2720 c6         1 FUE       0.165800
      4 N4          -1.7260     0.8160    -1.3630 n3         1 FUE      -0.702600
      5 C5          -0.3720     1.0880    -0.9570 c3         1 FUE       0.085800
      6 C6          -0.2730     2.1960     0.0760 c          1 FUE       0.674100
      7 C10          2.5920     4.1590     1.3050 c5         1 FUE      -0.107300
      8 C11          2.7430     5.3900     0.4050 c3         1 FUE      -0.077100
      9 C12          3.1840     4.4290     2.6820 c3         1 FUE      -0.077100
     10 C13          3.2210     2.9750     0.6200 ca         1 FUE       0.374600
     11 C15          4.9060     1.6860    -0.1670 ca         1 FUE       0.374200
     12 C16          4.0260     0.8040    -0.7710 ca         1 FUE      -0.165600
     13 C19          2.8210    -2.2820    -1.6280 ca         1 FUE      -0.100000
     14 C21          2.6840    -3.9200     0.0930 ca         1 FUE       0.139900
     15 C23          3.7550    -3.3510     0.7570 ca         1 FUE      -0.169000
     16 C24          4.3510    -2.2250     0.2100 ca         1 FUE      -0.100000
     17 C25          2.6550     1.0430    -0.6580 ca         1 FUE      -0.135000
     18 C26          2.2400     2.1500     0.0560 ca         1 FUE      -0.035700
     19 C27         -1.8850    -0.5100    -1.9650 c6         1 FUE       0.162500
     20 C28         -1.5170    -1.6670    -1.0290 c3         1 FUE       0.109000
     21 C31         -3.1720    -1.4240     2.2630 ca         1 FUE      -0.075300
     22 C35         -4.7560    -3.2520     2.3950 ca         1 FUE      -0.057000
     23 C36         -3.7900    -2.5330     1.7100 ca         1 FUE      -0.164600
     24 C37         -3.2400    -2.7610     0.3580 c          1 FUE       0.721100
     25 C39         -3.3250    -0.6860    -2.4330 c6         1 FUE       0.158800
     26 O7          -1.2480     2.6770     0.6200 o          1 FUE      -0.562100
     27 N8           0.9770     2.6440     0.3910 n          1 FUE      -0.383000
     28 C9           1.1210     3.7170     1.3890 c5         1 FUE       0.095000
     29 N14          4.5090     2.7630     0.5160 nb         1 FUE      -0.626000
     30 C18          3.8940    -1.6740    -0.9850 ca         1 FUE      -0.100300
     31 C20          2.2030    -3.4080    -1.0950 ca         1 FUE      -0.169000
     32 N29         -2.3270    -1.7790     0.1560 n          1 FUE      -0.478800
     33 C30         -2.1920    -0.8720     1.2800 c5         1 FUE       0.135300
     34 C32         -3.5060    -0.9940     3.5360 ca         1 FUE      -0.118000
     35 C33         -4.4740    -1.7090     4.2330 ca         1 FUE      -0.106000
     36 C34         -5.0950    -2.8260     3.6710 ca         1 FUE      -0.144000
     37 N40         -3.6940     0.3560    -3.3660 n7         1 FUE      -0.810200
     38 H41         -5.0660     2.5870    -4.0300 hc         1 FUE       0.040033
     39 H42         -4.0180     3.7260    -3.1920 hc         1 FUE       0.040033
     40 H43         -3.3920     2.7850    -4.5520 hc         1 FUE       0.040033
     41 H44         -4.2590     1.6930    -1.8230 h1         1 FUE       0.039700
     42 H46         -1.5400     1.9050    -3.1680 h1         1 FUE       0.044200
     43 H45         -2.1090     2.8260    -1.7700 h1         1 FUE       0.044200
     44 H48          0.0610     0.2030    -0.4870 h1         1 FUE       0.055200
     45 H47          0.2760     1.3310    -1.8150 h1         1 FUE       0.055200
     46 H53          2.2520     6.2540     0.8550 hc         1 FUE       0.044200
     47 H51          3.7960     5.6330     0.2590 hc         1 FUE       0.044200
     48 H52          2.2970     5.2260    -0.5780 hc         1 FUE       0.044200
     49 H55          3.1040     3.5540     3.3280 hc         1 FUE       0.044200
     50 H56          4.2380     4.6990     2.6030 hc         1 FUE       0.044200
     51 H54          2.6620     5.2560     3.1670 hc         1 FUE       0.044200
     52 H57          5.9760     1.5190    -0.2330 h4         1 FUE       0.023100
     53 H60          2.4540    -1.8760    -2.5630 ha         1 FUE       0.135000
     54 H62          4.1140    -3.7760     1.6850 ha         1 FUE       0.153000
     55 H63          5.1850    -1.7680     0.7300 ha         1 FUE       0.135000
     56 H64          1.9770     0.3460    -1.1270 ha         1 FUE       0.143000
     57 H65         -1.2270    -0.6150    -2.8470 h1         1 FUE       0.038700
     58 H67         -1.6270    -2.5900    -1.5980 h1         1 FUE       0.056700
     59 H66         -0.4640    -1.6330    -0.7340 h1         1 FUE       0.056700
     60 H73         -5.2300    -4.1180     1.9500 ha         1 FUE       0.151000
     61 H74         -3.4160    -1.6590    -2.9210 h1         1 FUE       0.050200
     62 H75         -3.9800    -0.6960    -1.5480 h1         1 FUE       0.050200
     63 H50          0.8800     3.3240     2.3800 h1         1 FUE       0.066700
     64 H49          0.4310     4.5310     1.1740 h1         1 FUE       0.066700
     65 H61          1.3690    -3.8760    -1.6000 ha         1 FUE       0.153000
     66 H69         -2.4280     0.1530     0.9840 h1         1 FUE       0.076700
     67 H68         -1.1690    -0.8810     1.6690 h1         1 FUE       0.076700
     68 H70         -3.0310    -0.1300     3.9820 ha         1 FUE       0.140000
     69 H71         -4.7520    -1.3950     5.2300 ha         1 FUE       0.132000
     70 H72         -5.8440    -3.3600     4.2390 ha         1 FUE       0.135000
     71 H77         -4.6390     0.1920    -3.6910 hn         1 FUE       0.360800
     72 C17          4.5110    -0.4080    -1.5240 c3         1 FUE       0.020200
     73 O38         -3.5370    -3.6500    -0.4240 o          1 FUE      -0.630500
     74 F22          2.0950    -5.0060     0.6220 f          1 FUE      -0.138900
     75 H59          4.2590    -0.3020    -2.5830 hc         1 FUE       0.060700
     76 H58          5.5990    -0.4610    -1.4650 hc         1 FUE       0.060700
@<TRIPOS>BOND
     1     1     2 1   
     2     1    38 1   
     3     1    39 1   
     4     1    40 1   
     5     2     3 1   
     6     2    37 1   
     7     2    41 1   
     8     3     4 1   
     9     3    42 1   
    10     3    43 1   
    11     4     5 1   
    12     4    19 1   
    13     5     6 1   
    14     5    44 1   
    15     5    45 1   
    16     6    26 2   
    17     6    27 1   
    18     7     8 1   
    19     7     9 1   
    20     7    10 1   
    21     7    28 1   
    22     8    46 1   
    23     8    47 1   
    24     8    48 1   
    25     9    49 1   
    26     9    50 1   
    27     9    51 1   
    28    10    18 ar  
    29    10    29 ar  
    30    11    12 ar  
    31    11    29 ar  
    32    11    52 1   
    33    12    17 ar  
    34    12    72 1   
    35    13    30 ar  
    36    13    31 ar  
    37    13    53 1   
    38    14    15 ar  
    39    14    31 ar  
    40    14    74 1   
    41    15    16 ar  
    42    15    54 1   
    43    16    30 ar  
    44    16    55 1   
    45    17    18 ar  
    46    17    56 1   
    47    18    27 1   
    48    19    20 1   
    49    19    25 1   
    50    19    57 1   
    51    20    32 1   
    52    20    58 1   
    53    20    59 1   
    54    21    23 ar  
    55    21    33 1   
    56    21    34 ar  
    57    22    23 ar  
    58    22    36 ar  
    59    22    60 1   
    60    23    24 1   
    61    24    32 1   
    62    24    73 2   
    63    25    37 1   
    64    25    61 1   
    65    25    62 1   
    66    27    28 1   
    67    28    63 1   
    68    28    64 1   
    69    30    72 1   
    70    31    65 1   
    71    32    33 1   
    72    33    66 1   
    73    33    67 1   
    74    34    35 ar  
    75    34    68 1   
    76    35    36 ar  
    77    35    69 1   
    78    36    70 1   
    79    37    71 1   
    80    72    75 1   
    81    72    76 1   
@<TRIPOS>SUBSTRUCTURE
     1 FUE         1 TEMP              0 ****  ****    0 ROOT
