@<TRIPOS>MOLECULE
FUF
   22    22     1     0     0
SMALL
No Charge or Current Charge


@<TRIPOS>ATOM
      1 C1           1.2920    -0.3050    -0.7100 c6         1 FUF       0.382300
      2 C2          -0.1090     0.1410    -1.2320 c6         1 FUF       0.129300
      3 C3          -1.2490    -0.4900    -0.3750 c6         1 FUF       0.107300
      4 C4          -1.0050    -0.2200     1.1410 c6         1 FUF       0.151300
      5 C5           0.4510    -0.6700     1.5140 c6         1 FUF       0.189300
      6 C6           0.8260    -0.3730     2.9870 c3         1 FUF      -0.081100
      7 O1           2.3410     0.4080    -1.3360 oh         1 FUF      -0.625000
      8 F2          -0.2720    -0.2860    -2.5730 f          1 FUF      -0.264000
      9 O3          -2.5400     0.0280    -0.7630 oh         1 FUF      -0.660000
     10 O4          -1.2430     1.1790     1.3970 oh         1 FUF      -0.701000
     11 O5           1.4270     0.0000     0.6830 os         1 FUF      -0.474000
     12 H1           1.4280    -1.3860    -0.8640 h2         1 FUF       0.020700
     13 H2          -0.1750     1.2380    -1.2140 h1         1 FUF       0.103700
     14 H3          -1.2260    -1.5790    -0.5280 h1         1 FUF       0.043700
     15 H4          -1.7150    -0.8300     1.7190 h1         1 FUF       0.047700
     16 H5           0.5420    -1.7550     1.3550 h1         1 FUF       0.029700
     17 H6C1         1.8300    -0.7460     3.2170 hc         1 FUF       0.051700
     18 H6C2         0.8100     0.7020     3.1970 hc         1 FUF       0.051700
     19 H6C3         0.1250    -0.8610     3.6750 hc         1 FUF       0.051700
     20 HA           2.9340     0.6340    -0.5890 ho         1 FUF       0.461000
     21 HB          -2.6740    -0.2180    -1.7070 ho         1 FUF       0.465000
     22 HC          -2.0130     1.3960     0.8170 ho         1 FUF       0.521000
@<TRIPOS>BOND
     1     1     2 1   
     2     1     7 1   
     3     1    11 1   
     4     1    12 1   
     5     2     3 1   
     6     2     8 1   
     7     2    13 1   
     8     3     4 1   
     9     3     9 1   
    10     3    14 1   
    11     4     5 1   
    12     4    10 1   
    13     4    15 1   
    14     5     6 1   
    15     5    11 1   
    16     5    16 1   
    17     6    17 1   
    18     6    18 1   
    19     6    19 1   
    20     7    20 1   
    21     9    21 1   
    22    10    22 1   
@<TRIPOS>SUBSTRUCTURE
     1 FUF         1 TEMP              0 ****  ****    0 ROOT
