@<TRIPOS>MOLECULE
FUF
   22    22     1     0     0
SMALL
abcg2


@<TRIPOS>ATOM
      1 C1           1.2970    -0.2080    -0.6360 c6         1 FUF       0.382300
      2 C2          -0.0700     0.1960    -1.1690 c6         1 FUF       0.129300
      3 C3          -1.1710    -0.5030    -0.3890 c6         1 FUF       0.107300
      4 C4          -1.0000    -0.2330     1.1060 c6         1 FUF       0.151300
      5 C5           0.4210    -0.6020     1.5190 c6         1 FUF       0.189300
      6 C6           0.7190    -0.3160     2.9760 c3         1 FUF      -0.081100
      7 O1           2.2650     0.5050    -1.3050 oh         1 FUF      -0.625000
      8 F2          -0.1600    -0.1840    -2.5080 f          1 FUF      -0.264000
      9 O3          -2.4540    -0.0690    -0.7630 oh         1 FUF      -0.660000
     10 O4          -1.2310     1.1170     1.4170 oh         1 FUF      -0.701000
     11 O5           1.3620     0.1070     0.7310 os         1 FUF      -0.474000
     12 H1           1.4290    -1.2970    -0.7690 h2         1 FUF       0.020700
     13 H2          -0.1860     1.2830    -1.1210 h1         1 FUF       0.103700
     14 H3          -1.0610    -1.5880    -0.5430 h1         1 FUF       0.043700
     15 H4          -1.6900    -0.8940     1.6510 h1         1 FUF       0.047700
     16 H5           0.5320    -1.6830     1.3450 h1         1 FUF       0.029700
     17 H6C1         1.7220    -0.6570     3.2330 hc         1 FUF       0.051700
     18 H6C2         0.6460     0.7460     3.2040 hc         1 FUF       0.051700
     19 H6C3         0.0160    -0.8510     3.6140 hc         1 FUF       0.051700
     20 HA           3.1150     0.0640    -1.2030 ho         1 FUF       0.461000
     21 HB          -2.6010    -0.2760    -1.6920 ho         1 FUF       0.465000
     22 HC          -2.1150     1.3480     1.1130 ho         1 FUF       0.521000
@<TRIPOS>BOND
     1     1     2 1   
     2     1     7 1   
     3     1    11 1   
     4     1    12 1   
     5     2     3 1   
     6     2     8 1   
     7     2    13 1   
     8     3     4 1   
     9     3     9 1   
    10     3    14 1   
    11     4     5 1   
    12     4    10 1   
    13     4    15 1   
    14     5     6 1   
    15     5    11 1   
    16     5    16 1   
    17     6    17 1   
    18     6    18 1   
    19     6    19 1   
    20     7    20 1   
    21     9    21 1   
    22    10    22 1   
@<TRIPOS>SUBSTRUCTURE
     1 FUF         1 TEMP              0 ****  ****    0 ROOT
