@<TRIPOS>MOLECULE
FUG
   68    69     1     0     0
SMALL
abcg2


@<TRIPOS>ATOM
      1 C5          -1.8610     3.3960     1.6330 c6         1 FUG      -0.093400
      2 C4          -1.6070     3.0270     0.1800 c6         1 FUG       0.149300
      3 C3          -2.8880     2.5090    -0.4770 c6         1 FUG       0.184300
      4 C2          -3.4860     1.3300     0.3030 c6         1 FUG      -0.027700
      5 C1          -3.7990     1.7580     1.7550 c6         1 FUG       0.188000
      6 C6          -2.5020     2.2530     2.4080 c6         1 FUG      -0.103400
      7 O11         -4.7370     2.8230     1.6930 oh         1 FUG      -0.666000
      8 C11         -4.3770     0.6140     2.5830 c3         1 FUG      -0.120100
      9 C21         -4.6560     0.6830    -0.4320 cx         1 FUG       0.125000
     10 C22         -4.8390    -0.7610    -0.2360 cx         1 FUG       0.080300
     11 C23         -6.1510    -1.5000    -0.3220 c3         1 FUG      -0.028200
     12 C24         -5.9650    -2.8460    -0.9570 c2         1 FUG      -0.214200
     13 C25         -5.9690    -4.0390    -0.3560 c2         1 FUG      -0.117400
     14 C2A         -5.8190     1.5620    -0.8150 c3         1 FUG      -0.069100
     15 O2A         -4.2620    -0.2610    -1.4280 op         1 FUG      -0.415000
     16 C2B         -6.1810    -4.2590     1.1120 c3         1 FUG      -0.054900
     17 C2C         -5.7460    -5.2980    -1.1420 c3         1 FUG      -0.054900
     18 O31         -2.6630     2.1000    -1.8010 os         1 FUG      -0.425000
     19 C31         -2.6000     3.1530    -2.7310 c3         1 FUG       0.145900
     20 O41         -0.6470     1.9680     0.0660 os         1 FUG      -0.434100
     21 C41          0.6490     2.2460     0.1490 c          1 FUG       0.603300
     22 O4A          1.0910     3.3550     0.3500 o          1 FUG      -0.523000
     23 C42          1.4570     1.0360    -0.0440 ce         1 FUG      -0.330200
     24 C43          2.7920     1.0610     0.1030 cf         1 FUG      -0.055000
     25 C44          3.6430    -0.0810    -0.0850 cf         1 FUG      -0.285000
     26 C45          4.9780    -0.0280     0.1120 ce         1 FUG      -0.071000
     27 C46          5.8640    -1.1420    -0.0770 ce         1 FUG      -0.297000
     28 C47          7.1930    -1.0670     0.1420 cf         1 FUG      -0.064000
     29 C48          8.1010    -2.1710    -0.0480 cf         1 FUG      -0.278000
     30 C49          9.4200    -2.0920     0.1770 ce         1 FUG      -0.183200
     31 C4A         10.3760    -3.2430    -0.0250 c          1 FUG       0.692200
     32 O4B         11.5750    -2.9930     0.2180 o          1 FUG      -0.715500
     33 O4C          9.9000    -4.3290    -0.4110 o          1 FUG      -0.715500
     34 H51         -0.9320     3.7130     2.1110 hc         1 FUG       0.058200
     35 H52         -2.5180     4.2690     1.6410 hc         1 FUG       0.058200
     36 H4          -1.2410     3.9030    -0.3630 h1         1 FUG       0.064700
     37 H3          -3.5970     3.3500    -0.4630 h1         1 FUG       0.050700
     38 H2          -2.7150     0.5540     0.3850 hc         1 FUG       0.088700
     39 H61         -1.8010     1.4190     2.4980 hc         1 FUG       0.050700
     40 H62         -2.7160     2.5770     3.4310 hc         1 FUG       0.050700
     41 HOB         -4.8970     3.1330     2.5910 ho         1 FUG       0.438000
     42 H111        -4.5260     0.9420     3.6150 hc         1 FUG       0.042700
     43 H112        -5.3430     0.2840     2.2000 hc         1 FUG       0.042700
     44 H113        -3.7070    -0.2460     2.6070 hc         1 FUG       0.042700
     45 H22         -4.1220    -1.2640     0.4150 h1         1 FUG       0.077700
     46 H231        -6.5510    -1.5830     0.6910 hc         1 FUG       0.050200
     47 H232        -6.8820    -0.9270    -0.8960 hc         1 FUG       0.050200
     48 H24         -5.7890    -2.8230    -2.0290 ha         1 FUG       0.177000
     49 H2A1        -5.4840     2.4650    -1.3270 hc         1 FUG       0.045367
     50 H2A2        -6.5020     1.0480    -1.4880 hc         1 FUG       0.045367
     51 H2A3        -6.3770     1.8750     0.0650 hc         1 FUG       0.045367
     52 H2B1        -7.0230    -4.9340     1.2810 hc         1 FUG       0.037533
     53 H2B2        -5.3060    -4.7410     1.5550 hc         1 FUG       0.037533
     54 H2B3        -6.3690    -3.3440     1.6700 hc         1 FUG       0.037533
     55 H2C1        -5.6100    -5.1030    -2.2050 hc         1 FUG       0.037533
     56 H2C2        -4.8650    -5.8330    -0.7790 hc         1 FUG       0.037533
     57 H2C3        -6.5910    -5.9830    -1.0290 hc         1 FUG       0.037533
     58 H311        -2.5430     2.7130    -3.7260 h1         1 FUG       0.027033
     59 H312        -3.4920     3.7880    -2.6840 h1         1 FUG       0.027033
     60 H313        -1.7230     3.7950    -2.5960 h1         1 FUG       0.027033
     61 H42          0.9440     0.1190    -0.3100 ha         1 FUG       0.198000
     62 H43          3.2750     1.9920     0.3860 ha         1 FUG       0.179000
     63 H44          3.1830    -1.0120    -0.4010 ha         1 FUG       0.179000
     64 H45          5.4230     0.9100     0.4340 ha         1 FUG       0.159000
     65 H46          5.4310    -2.0790    -0.4150 ha         1 FUG       0.180000
     66 H47          7.6170    -0.1260     0.4830 ha         1 FUG       0.152000
     67 H48          7.6810    -3.1100    -0.3940 ha         1 FUG       0.196000
     68 H49          9.8420    -1.1520     0.5220 ha         1 FUG       0.142000
@<TRIPOS>BOND
     1     1     2 1   
     2     1     6 1   
     3     1    34 1   
     4     1    35 1   
     5     2     3 1   
     6     2    20 1   
     7     2    36 1   
     8     3     4 1   
     9     3    18 1   
    10     3    37 1   
    11     4     5 1   
    12     4     9 1   
    13     4    38 1   
    14     5     6 1   
    15     5     7 1   
    16     5     8 1   
    17     6    39 1   
    18     6    40 1   
    19     7    41 1   
    20     8    42 1   
    21     8    43 1   
    22     8    44 1   
    23     9    10 1   
    24     9    14 1   
    25     9    15 1   
    26    10    11 1   
    27    10    15 1   
    28    10    45 1   
    29    11    12 1   
    30    11    46 1   
    31    11    47 1   
    32    12    13 2   
    33    12    48 1   
    34    13    16 1   
    35    13    17 1   
    36    14    49 1   
    37    14    50 1   
    38    14    51 1   
    39    16    52 1   
    40    16    53 1   
    41    16    54 1   
    42    17    55 1   
    43    17    56 1   
    44    17    57 1   
    45    18    19 1   
    46    19    58 1   
    47    19    59 1   
    48    19    60 1   
    49    20    21 1   
    50    21    22 2   
    51    21    23 1   
    52    23    24 2   
    53    23    61 1   
    54    24    25 1   
    55    24    62 1   
    56    25    26 2   
    57    25    63 1   
    58    26    27 1   
    59    26    64 1   
    60    27    28 2   
    61    27    65 1   
    62    28    29 1   
    63    28    66 1   
    64    29    30 2   
    65    29    67 1   
    66    30    31 1   
    67    30    68 1   
    68    31    32 1   
    69    31    33 1   
@<TRIPOS>SUBSTRUCTURE
     1 FUG         1 TEMP              0 ****  ****    0 ROOT
