@<TRIPOS>MOLECULE
FUG
   68    69     1     0     0
SMALL
No Charge or Current Charge


@<TRIPOS>ATOM
      1 C5          -2.0050     3.2310     1.7400 c6         1 FUG      -0.093400
      2 C4          -1.7020     3.0500     0.2300 c6         1 FUG       0.149300
      3 C3          -2.9960     2.5920    -0.5250 c6         1 FUG       0.184300
      4 C2          -3.5630     1.2630     0.0800 c6         1 FUG      -0.027700
      5 C1          -3.8820     1.4560     1.6130 c6         1 FUG       0.188000
      6 C6          -2.6020     1.9400     2.3580 c6         1 FUG      -0.103400
      7 O11         -4.9050     2.4380     1.7950 oh         1 FUG      -0.666000
      8 C11         -4.3920     0.1520     2.2900 c3         1 FUG      -0.120100
      9 C21         -4.7370     0.6620    -0.7590 cx         1 FUG       0.125000
     10 C22         -4.8980    -0.8430    -0.7300 cx         1 FUG       0.080300
     11 C23         -6.2540    -1.5260    -0.8900 c3         1 FUG      -0.028200
     12 C24         -6.0890    -3.0250    -1.0620 c2         1 FUG      -0.214200
     13 C25         -5.9640    -3.9510    -0.0920 c2         1 FUG      -0.117400
     14 C2A         -5.9750     1.5420    -0.9690 c3         1 FUG      -0.069100
     15 O2A         -4.3650    -0.1690    -1.8890 op         1 FUG      -0.415000
     16 C2B         -5.9380    -3.6630     1.4020 c3         1 FUG      -0.054900
     17 C2C         -5.8220    -5.4310    -0.3950 c3         1 FUG      -0.054900
     18 O31         -2.7710     2.4590    -1.9530 os         1 FUG      -0.425000
     19 C31         -2.4220     3.6460    -2.6890 c3         1 FUG       0.145900
     20 O41         -0.6310     2.0960     0.0350 os         1 FUG      -0.434100
     21 C41          0.6680     2.4230     0.3070 c          1 FUG       0.603300
     22 O4A          1.0510     3.5300     0.6570 o          1 FUG      -0.523000
     23 C42          1.5630     1.2610     0.0870 ce         1 FUG      -0.330200
     24 C43          2.9130     1.2760     0.2600 cf         1 FUG      -0.055000
     25 C44          3.7740     0.1230     0.0390 cf         1 FUG      -0.285000
     26 C45          5.1220     0.1180     0.2070 ce         1 FUG      -0.071000
     27 C46          5.9730    -1.0530    -0.0210 ce         1 FUG      -0.297000
     28 C47          7.3220    -1.0730     0.1440 cf         1 FUG      -0.064000
     29 C48          8.1560    -2.2430    -0.0860 cf         1 FUG      -0.278000
     30 C49          9.5140    -2.2750     0.0760 ce         1 FUG      -0.183200
     31 C4A         10.4090    -3.4570    -0.1500 c          1 FUG       0.692200
     32 O4B         11.6050    -3.3070     0.0440 o          1 FUG      -0.715500
     33 O4C          9.9130    -4.5130    -0.5150 o          1 FUG      -0.715500
     34 H51         -1.0960     3.5170     2.2840 hc         1 FUG       0.058200
     35 H52         -2.7060     4.0670     1.8720 hc         1 FUG       0.058200
     36 H4          -1.3840     4.0210    -0.1770 h1         1 FUG       0.064700
     37 H3          -3.7500     3.3780    -0.3840 h1         1 FUG       0.050700
     38 H2          -2.7490     0.5290     0.0180 hc         1 FUG       0.088700
     39 H61         -1.8430     1.1460     2.3410 hc         1 FUG       0.050700
     40 H62         -2.8250     2.1180     3.4200 hc         1 FUG       0.050700
     41 HOB         -5.0710     2.4970     2.7600 ho         1 FUG       0.438000
     42 H111        -4.4940     0.2770     3.3750 hc         1 FUG       0.042700
     43 H112        -5.3760    -0.1460     1.9120 hc         1 FUG       0.042700
     44 H113        -3.6990    -0.6820     2.1240 hc         1 FUG       0.042700
     45 H22         -4.1720    -1.4220    -0.1600 h1         1 FUG       0.077700
     46 H231        -6.8800    -1.3030    -0.0170 hc         1 FUG       0.050200
     47 H232        -6.7930    -1.1190    -1.7540 hc         1 FUG       0.050200
     48 H24         -6.0890    -3.3380    -2.1090 ha         1 FUG       0.177000
     49 H2A1        -5.7150     2.5970    -1.0980 hc         1 FUG       0.045367
     50 H2A2        -6.5330     1.2410    -1.8640 hc         1 FUG       0.045367
     51 H2A3        -6.6550     1.4680    -0.1130 hc         1 FUG       0.045367
     52 H2B1        -6.7770    -4.1530     1.9100 hc         1 FUG       0.037533
     53 H2B2        -5.0120    -4.0350     1.8560 hc         1 FUG       0.037533
     54 H2B3        -5.9980    -2.5940     1.6310 hc         1 FUG       0.037533
     55 H2C1        -5.8420    -5.6300    -1.4730 hc         1 FUG       0.037533
     56 H2C2        -4.8760    -5.8260    -0.0060 hc         1 FUG       0.037533
     57 H2C3        -6.6380    -6.0070     0.0600 hc         1 FUG       0.037533
     58 H311        -2.3860     3.4270    -3.7630 h1         1 FUG       0.027033
     59 H312        -3.1640     4.4380    -2.5260 h1         1 FUG       0.027033
     60 H313        -1.4350     4.0220    -2.3900 h1         1 FUG       0.027033
     61 H42          1.0720     0.3460    -0.2370 ha         1 FUG       0.198000
     62 H43          3.3920     2.2040     0.5870 ha         1 FUG       0.179000
     63 H44          3.2890    -0.8000    -0.2870 ha         1 FUG       0.179000
     64 H45          5.6170     1.0370     0.5330 ha         1 FUG       0.159000
     65 H46          5.4740    -1.9680    -0.3460 ha         1 FUG       0.180000
     66 H47          7.8230    -0.1570     0.4690 ha         1 FUG       0.152000
     67 H48          7.6500    -3.1560    -0.4110 ha         1 FUG       0.196000
     68 H49         10.0260    -1.3710     0.3990 ha         1 FUG       0.142000
@<TRIPOS>BOND
     1     1     2 1   
     2     1     6 1   
     3     1    34 1   
     4     1    35 1   
     5     2     3 1   
     6     2    20 1   
     7     2    36 1   
     8     3     4 1   
     9     3    18 1   
    10     3    37 1   
    11     4     5 1   
    12     4     9 1   
    13     4    38 1   
    14     5     6 1   
    15     5     7 1   
    16     5     8 1   
    17     6    39 1   
    18     6    40 1   
    19     7    41 1   
    20     8    42 1   
    21     8    43 1   
    22     8    44 1   
    23     9    10 1   
    24     9    14 1   
    25     9    15 1   
    26    10    11 1   
    27    10    15 1   
    28    10    45 1   
    29    11    12 1   
    30    11    46 1   
    31    11    47 1   
    32    12    13 2   
    33    12    48 1   
    34    13    16 1   
    35    13    17 1   
    36    14    49 1   
    37    14    50 1   
    38    14    51 1   
    39    16    52 1   
    40    16    53 1   
    41    16    54 1   
    42    17    55 1   
    43    17    56 1   
    44    17    57 1   
    45    18    19 1   
    46    19    58 1   
    47    19    59 1   
    48    19    60 1   
    49    20    21 1   
    50    21    22 2   
    51    21    23 1   
    52    23    24 2   
    53    23    61 1   
    54    24    25 1   
    55    24    62 1   
    56    25    26 2   
    57    25    63 1   
    58    26    27 1   
    59    26    64 1   
    60    27    28 2   
    61    27    65 1   
    62    28    29 1   
    63    28    66 1   
    64    29    30 2   
    65    29    67 1   
    66    30    31 1   
    67    30    68 1   
    68    31    32 1   
    69    31    33 1   
@<TRIPOS>SUBSTRUCTURE
     1 FUG         1 TEMP              0 ****  ****    0 ROOT
