@<TRIPOS>MOLECULE
FUH
   72    74     1     0     0
SMALL
No Charge or Current Charge


@<TRIPOS>ATOM
      1 O1           1.3900     1.2360     2.4020 o          1 FUH      -0.585100
      2 C1           2.0880     2.0160     1.7700 c          1 FUH       0.604100
      3 C2           2.6690     3.2820     2.3980 c3         1 FUH      -0.163400
      4 C3           1.5690     4.3110     2.7120 c3         1 FUH       0.176300
      5 O2           0.9640     4.7390     1.4920 oh         1 FUH      -0.669000
      6 C4           2.1180     5.5480     3.4470 c3         1 FUH      -0.127100
      7 N1           2.4330     1.8040     0.4550 ns         1 FUH      -0.480900
      8 C5           2.0950     0.6160    -0.3570 c6         1 FUH       0.078700
      9 C6           1.9060     1.0290    -1.8500 c6         1 FUH       0.126300
     10 O3           3.0960     1.6900    -2.3410 oh         1 FUH      -0.732000
     11 C7           1.5410    -0.2430    -2.6820 c6         1 FUH       0.157300
     12 C8           1.3560     0.0410    -4.1950 c3         1 FUH      -0.090100
     13 O4           2.5780    -1.2440    -2.5590 os         1 FUH      -0.461000
     14 C9           3.1920    -0.5030    -0.2720 c6         1 FUH       0.127300
     15 O5           3.4950    -0.8560     1.1040 oh         1 FUH      -0.781000
     16 C10          2.7810    -1.7210    -1.2100 c6         1 FUH       0.418300
     17 O6           1.5810    -2.4050    -0.8270 os         1 FUH      -0.618400
     18 P1           1.5940    -3.3770     0.4430 p5         1 FUH       1.477800
     19 O7           1.7310    -2.5370     1.6680 o          1 FUH      -0.836500
     20 O8           2.6790    -4.3860     0.2820 o          1 FUH      -0.836500
     21 O9           0.1660    -3.9850     0.1950 os         1 FUH      -0.696800
     22 P2          -0.4680    -4.6780     1.4580 p5         1 FUH       1.459800
     23 O10          0.5120    -5.3680     2.3470 o          1 FUH      -0.843500
     24 O11         -1.5330    -5.6360     1.0360 o          1 FUH      -0.843500
     25 O12         -1.1270    -3.3940     2.1700 os         1 FUH      -0.583400
     26 C11         -2.2970    -2.8020     1.5860 c3         1 FUH       0.245600
     27 C12         -2.2130    -1.2620     1.7400 c5         1 FUH       0.161300
     28 C13         -3.5630    -0.5220     1.5120 c5         1 FUH       0.123300
     29 O13         -4.4800    -0.6560     2.6010 oh         1 FUH      -0.705000
     30 C14         -3.0580     0.9390     1.3630 c5         1 FUH      -0.161400
     31 C15         -1.6390     0.7390     0.7440 c5         1 FUH       0.350700
     32 O14         -1.3880    -0.6770     0.7120 os         1 FUH      -0.380000
     33 N2          -1.6370     1.3830    -0.5980 n          1 FUH      -0.306000
     34 C16         -1.1530     2.6900    -0.6980 cc         1 FUH       0.034600
     35 C17         -1.1010     3.3240    -1.9210 cd         1 FUH      -0.315400
     36 C18         -0.5730     4.7280    -2.1100 c3         1 FUH      -0.008900
     37 C19         -1.5630     2.6230    -3.1400 c          1 FUH       0.593200
     38 O15         -1.5480     3.0970    -4.2640 o          1 FUH      -0.578000
     39 N3          -2.0250     1.3690    -2.9120 ns         1 FUH      -0.470500
     40 C20         -2.1140     0.6950    -1.7360 c          1 FUH       0.617000
     41 O16         -2.6060    -0.4200    -1.7220 o          1 FUH      -0.536000
     42 H1           3.1550     3.0010     3.3400 hc         1 FUH       0.059200
     43 H2           3.4100     3.7350     1.7290 hc         1 FUH       0.059200
     44 H3           0.8180     3.8360     3.3600 h1         1 FUH       0.060700
     45 H4           0.4610     5.5570     1.6970 ho         1 FUH       0.431000
     46 H5           2.5850     5.2550     4.3950 hc         1 FUH       0.033033
     47 H6           2.8710     6.0650     2.8390 hc         1 FUH       0.033033
     48 H7           1.3120     6.2560     3.6740 hc         1 FUH       0.033033
     49 H8           3.0060     2.5140     0.0160 hn         1 FUH       0.302500
     50 H9           1.1450     0.1980     0.0080 h1         1 FUH       0.119700
     51 H10          1.0600     1.7250    -1.9110 h1         1 FUH       0.027700
     52 H11          3.0010     1.7650    -3.3160 ho         1 FUH       0.487000
     53 H12          0.5910    -0.6550    -2.3060 h1         1 FUH       0.076700
     54 H13          1.0010    -0.8550    -4.7180 hc         1 FUH       0.031367
     55 H14          0.6160     0.8330    -4.3600 hc         1 FUH       0.031367
     56 H15          2.2940     0.3520    -4.6700 hc         1 FUH       0.031367
     57 H16          4.1090    -0.0840    -0.7110 h1         1 FUH       0.045700
     58 H17          2.7370    -1.4570     1.4280 ho         1 FUH       0.592000
     59 H18          3.6150    -2.4410    -1.2250 h2         1 FUH       0.083700
     60 H21         -2.3990    -3.0510     0.5200 h1         1 FUH       0.031700
     61 H22         -3.1930    -3.1650     2.1060 h1         1 FUH       0.031700
     62 H23         -1.7930    -1.0190     2.7260 h1         1 FUH       0.074700
     63 H24         -4.0220    -0.8690     0.5740 h1         1 FUH       0.067700
     64 H25         -5.2570    -0.0840     2.3970 ho         1 FUH       0.483000
     65 H26         -3.7290     1.5460     0.7430 hc         1 FUH       0.047700
     66 H27         -2.9750     1.4420     2.3340 hc         1 FUH       0.047700
     67 H28         -0.8790     1.2390     1.3550 h2         1 FUH       0.071700
     68 H29         -0.8320     3.1200     0.2480 h4         1 FUH       0.224000
     69 H30          0.3150     4.7320    -2.7530 hc         1 FUH       0.036700
     70 H31         -1.3270     5.3770    -2.5730 hc         1 FUH       0.036700
     71 H32         -0.2900     5.1840    -1.1540 hc         1 FUH       0.036700
     72 H33         -2.3650     0.8760    -3.7220 hn         1 FUH       0.333500
@<TRIPOS>BOND
     1     1     2 2   
     2     2     3 1   
     3     2     7 1   
     4     3     4 1   
     5     3    42 1   
     6     3    43 1   
     7     4     5 1   
     8     4     6 1   
     9     4    44 1   
    10     5    45 1   
    11     6    46 1   
    12     6    47 1   
    13     6    48 1   
    14     7     8 1   
    15     7    49 1   
    16     8     9 1   
    17     8    14 1   
    18     8    50 1   
    19     9    10 1   
    20     9    11 1   
    21     9    51 1   
    22    10    52 1   
    23    11    12 1   
    24    11    13 1   
    25    11    53 1   
    26    12    54 1   
    27    12    55 1   
    28    12    56 1   
    29    13    16 1   
    30    14    15 1   
    31    14    16 1   
    32    14    57 1   
    33    15    58 1   
    34    16    17 1   
    35    16    59 1   
    36    17    18 1   
    37    18    19 1   
    38    18    20 1   
    39    18    21 1   
    40    21    22 1   
    41    22    23 1   
    42    22    24 1   
    43    22    25 1   
    44    25    26 1   
    45    26    27 1   
    46    26    60 1   
    47    26    61 1   
    48    27    28 1   
    49    27    32 1   
    50    27    62 1   
    51    28    29 1   
    52    28    30 1   
    53    28    63 1   
    54    29    64 1   
    55    30    31 1   
    56    30    65 1   
    57    30    66 1   
    58    31    32 1   
    59    31    33 1   
    60    31    67 1   
    61    33    34 1   
    62    33    40 1   
    63    34    35 2   
    64    34    68 1   
    65    35    36 1   
    66    35    37 1   
    67    36    69 1   
    68    36    70 1   
    69    36    71 1   
    70    37    38 2   
    71    37    39 1   
    72    39    40 1   
    73    39    72 1   
    74    40    41 2   
@<TRIPOS>SUBSTRUCTURE
     1 FUH         1 TEMP              0 ****  ****    0 ROOT
