@<TRIPOS>MOLECULE
FUH
   72    74     1     0     0
SMALL
bcc


@<TRIPOS>ATOM
      1 O1           1.2090     1.5220     1.9020 o          1 FUH      -0.585100
      2 C1           2.0100     2.2270     1.3060 c          1 FUH       0.671100
      3 C2           2.5660     3.4950     1.9220 c3         1 FUH      -0.163400
      4 C3           1.5130     4.2890     2.6740 c3         1 FUH       0.153100
      5 O2           0.5490     4.7010     1.7200 oh         1 FUH      -0.606800
      6 C4           2.1260     5.4800     3.3940 c3         1 FUH      -0.127100
      7 N1           2.4760     1.9460     0.0770 ns         1 FUH      -0.547900
      8 C5           2.2000     0.7250    -0.6370 c6         1 FUH       0.078700
      9 C6           2.0470     1.0090    -2.1300 c6         1 FUH       0.103100
     10 O3           3.2130     1.6790    -2.5620 oh         1 FUH      -0.609800
     11 C7           1.8000    -0.2940    -2.8870 c6         1 FUH       0.134100
     12 C8           1.7580    -0.1040    -4.3890 c3         1 FUH      -0.090100
     13 O4           2.8100    -1.2540    -2.6060 os         1 FUH      -0.414600
     14 C9           3.3070    -0.3180    -0.4360 c6         1 FUH       0.104100
     15 O5           3.5800    -0.5900     0.9040 oh         1 FUH      -0.658800
     16 C10          2.9730    -1.5730    -1.2610 c6         1 FUH       0.371900
     17 O6           1.7910    -2.1880    -0.8090 os         1 FUH      -0.595200
     18 P1           1.8110    -3.2830     0.4230 p5         1 FUH       1.477800
     19 O7           1.9200    -2.5260     1.7200 o          1 FUH      -0.836500
     20 O8           2.7950    -4.3640     0.1050 o          1 FUH      -0.836500
     21 O9           0.2900    -3.8000     0.1640 os         1 FUH      -0.696800
     22 P2          -0.6570    -4.5380     1.3000 p5         1 FUH       1.459800
     23 O10          0.2120    -5.2100     2.3120 o          1 FUH      -0.843500
     24 O11         -1.6990    -5.2790     0.5230 o          1 FUH      -0.843500
     25 O12         -1.3300    -3.2520     2.0490 os         1 FUH      -0.560200
     26 C11         -2.4550    -2.6100     1.4810 c3         1 FUH       0.222400
     27 C12         -2.5300    -1.1840     1.9700 c5         1 FUH       0.138100
     28 C13         -3.9010    -0.5460     1.7410 c5         1 FUH       0.100100
     29 O13         -4.7230    -0.8280     2.8460 oh         1 FUH      -0.582800
     30 C14         -3.5460     0.9280     1.5630 c5         1 FUH      -0.161400
     31 C15         -2.0750     0.9240     1.1320 c5         1 FUH       0.327500
     32 O14         -1.5900    -0.3730     1.2890 os         1 FUH      -0.333600
     33 N2          -1.8350     1.3830    -0.2410 n          1 FUH      -0.373000
     34 C16         -1.0770     2.5050    -0.4430 cc         1 FUH       0.084600
     35 C17         -0.8190     3.0400    -1.6510 cd         1 FUH      -0.315400
     36 C18          0.0340     4.2520    -1.8400 c3         1 FUH      -0.008900
     37 C19         -1.3520     2.3680    -2.8170 c          1 FUH       0.735700
     38 O15         -1.1740     2.7160    -3.9720 o          1 FUH      -0.653500
     39 N3          -2.0920     1.2360    -2.5310 ns         1 FUH      -0.604500
     40 C20         -2.3970     0.7110    -1.2990 c          1 FUH       0.826500
     41 O16         -3.1090    -0.2650    -1.1820 o          1 FUH      -0.611500
     42 H1           3.3520     3.2010     2.6240 hc         1 FUH       0.059200
     43 H2           3.0450     4.1290     1.1710 hc         1 FUH       0.059200
     44 H3           1.0520     3.6290     3.4180 h1         1 FUH       0.060700
     45 H4          -0.1790     5.1250     2.1860 ho         1 FUH       0.392000
     46 H5           2.8410     5.1510     4.1480 hc         1 FUH       0.033033
     47 H6           2.6470     6.1400     2.6980 hc         1 FUH       0.033033
     48 H7           1.3590     6.0640     3.9060 hc         1 FUH       0.033033
     49 H8           3.1570     2.5670    -0.3320 hn         1 FUH       0.302500
     50 H9           1.2530     0.3260    -0.2600 h1         1 FUH       0.119700
     51 H10          1.1660     1.6460    -2.2650 h1         1 FUH       0.027700
     52 H11          3.0290     2.1310    -3.3900 ho         1 FUH       0.388000
     53 H12          0.8200    -0.6710    -2.5630 h1         1 FUH       0.076700
     54 H13          1.4800    -1.0320    -4.8890 hc         1 FUH       0.031367
     55 H14          1.0130     0.6470    -4.6530 hc         1 FUH       0.031367
     56 H15          2.7220     0.2140    -4.7880 hc         1 FUH       0.031367
     57 H16          4.2360     0.0850    -0.8570 h1         1 FUH       0.045700
     58 H17          2.8650    -1.1410     1.2960 ho         1 FUH       0.493000
     59 H18          3.8140    -2.2760    -1.2160 h2         1 FUH       0.083700
     60 H21         -2.4290    -2.6060     0.3880 h1         1 FUH       0.031700
     61 H22         -3.3720    -3.1260     1.7880 h1         1 FUH       0.031700
     62 H23         -2.3290    -1.1620     3.0520 h1         1 FUH       0.074700
     63 H24         -4.3470    -0.9360     0.8210 h1         1 FUH       0.067700
     64 H25         -5.6310    -0.6230     2.6060 ho         1 FUH       0.384000
     65 H26         -4.1930     1.4560     0.8640 hc         1 FUH       0.047700
     66 H27         -3.6260     1.4340     2.5270 hc         1 FUH       0.047700
     67 H28         -1.4970     1.6170     1.7460 h2         1 FUH       0.071700
     68 H29         -0.6820     2.9620     0.4540 h4         1 FUH       0.174000
     69 H30          0.9220     4.0220    -2.4320 hc         1 FUH       0.036700
     70 H31         -0.5030     5.0440    -2.3610 hc         1 FUH       0.036700
     71 H32          0.3700     4.6380    -0.8800 hc         1 FUH       0.036700
     72 H33         -2.4910     0.7410    -3.3190 hn         1 FUH       0.333500
@<TRIPOS>BOND
     1     1     2 2   
     2     2     3 1   
     3     2     7 1   
     4     3     4 1   
     5     3    42 1   
     6     3    43 1   
     7     4     5 1   
     8     4     6 1   
     9     4    44 1   
    10     5    45 1   
    11     6    46 1   
    12     6    47 1   
    13     6    48 1   
    14     7     8 1   
    15     7    49 1   
    16     8     9 1   
    17     8    14 1   
    18     8    50 1   
    19     9    10 1   
    20     9    11 1   
    21     9    51 1   
    22    10    52 1   
    23    11    12 1   
    24    11    13 1   
    25    11    53 1   
    26    12    54 1   
    27    12    55 1   
    28    12    56 1   
    29    13    16 1   
    30    14    15 1   
    31    14    16 1   
    32    14    57 1   
    33    15    58 1   
    34    16    17 1   
    35    16    59 1   
    36    17    18 1   
    37    18    19 1   
    38    18    20 1   
    39    18    21 1   
    40    21    22 1   
    41    22    23 1   
    42    22    24 1   
    43    22    25 1   
    44    25    26 1   
    45    26    27 1   
    46    26    60 1   
    47    26    61 1   
    48    27    28 1   
    49    27    32 1   
    50    27    62 1   
    51    28    29 1   
    52    28    30 1   
    53    28    63 1   
    54    29    64 1   
    55    30    31 1   
    56    30    65 1   
    57    30    66 1   
    58    31    32 1   
    59    31    33 1   
    60    31    67 1   
    61    33    34 1   
    62    33    40 1   
    63    34    35 2   
    64    34    68 1   
    65    35    36 1   
    66    35    37 1   
    67    36    69 1   
    68    36    70 1   
    69    36    71 1   
    70    37    38 2   
    71    37    39 1   
    72    39    40 1   
    73    39    72 1   
    74    40    41 2   
@<TRIPOS>SUBSTRUCTURE
     1 FUH         1 TEMP              0 ****  ****    0 ROOT
