@<TRIPOS>MOLECULE
FUI
   48    50     1     0     0
SMALL
abcg2


@<TRIPOS>ATOM
      1 C21         86.9540   116.0680    98.1680 ca         1 FUI      -0.151000
      2 C01         78.2410   114.8080    94.6080 ca         1 FUI      -0.095500
      3 C02         77.4360   114.8590    93.4800 ca         1 FUI      -0.107000
      4 C03         76.6830   115.9960    93.2110 ca         1 FUI      -0.104000
      5 C04         76.7280   117.0790    94.0780 ca         1 FUI      -0.107000
      6 C05         77.5180   117.0270    95.2170 ca         1 FUI      -0.095500
      7 C06         78.2780   115.8950    95.4740 ca         1 FUI       0.041600
      8 C08         80.3790   116.4220    96.6650 c          1 FUI       0.562200
      9 C09         81.0150   115.7380    97.7600 cc         1 FUI      -0.162600
     10 C10         80.1480   114.8020    98.2510 cd         1 FUI       0.146800
     11 C13         80.3380   113.8550    99.3970 c3         1 FUI      -0.014500
     12 C14         80.2840   114.6060   100.7280 c3         1 FUI      -0.083600
     13 C15         81.6280   113.0440    99.2600 c3         1 FUI      -0.083600
     14 C18         83.3790   115.5440    97.4030 c          1 FUI       0.666100
     15 C20         85.8650   115.6390    97.4010 ca         1 FUI       0.006000
     16 C22         88.2550   115.8120    97.7770 ca         1 FUI      -0.073000
     17 C23         88.4880   115.1110    96.6040 ca         1 FUI       0.086000
     18 C24         87.4270   114.6880    95.8250 ca         1 FUI      -0.073000
     19 C25         86.1200   114.9490    96.2130 ca         1 FUI      -0.151000
     20 N07         79.1110   115.8710    96.6160 n          1 FUI      -0.184400
     21 N11         79.0010   114.8350    97.5240 na         1 FUI      -0.388400
     22 N17         82.3300   115.9740    98.1650 ns         1 FUI      -0.409100
     23 N19         84.5980   115.9430    97.8880 ns         1 FUI      -0.161000
     24 O16         80.7990   117.2700    95.8890 o          1 FUI      -0.522000
     25 O27         83.2280   114.8600    96.4070 o          1 FUI      -0.599100
     26 CL26        90.1160   114.7660    96.1140 cl         1 FUI      -0.208000
     27 H1          86.7830   116.6150    99.0880 ha         1 FUI       0.133000
     28 H2          78.8390   113.9300    94.8170 ha         1 FUI       0.127500
     29 H3          77.4030   114.0130    92.8060 ha         1 FUI       0.117000
     30 H4          76.0640   116.0360    92.3240 ha         1 FUI       0.115000
     31 H5          76.1380   117.9630    93.8740 ha         1 FUI       0.117000
     32 H6          77.5400   117.8570    95.9110 ha         1 FUI       0.127500
     33 H7          77.7180   113.8140    98.8040 h1         1 FUI       0.055367
     34 H8          77.2500   115.4960    98.4960 h1         1 FUI       0.055367
     35 H9          77.0140   114.2440    97.2560 h1         1 FUI       0.055367
     36 H10         79.5150   113.1370    99.3830 hc         1 FUI       0.054700
     37 H11         80.3420   113.9000   101.5570 hc         1 FUI       0.042700
     38 H12         81.1190   115.3020   100.8200 hc         1 FUI       0.042700
     39 H13         79.3580   115.1720   100.8360 hc         1 FUI       0.042700
     40 H14         81.6290   112.2430   100.0000 hc         1 FUI       0.042700
     41 H15         81.7140   112.5890    98.2740 hc         1 FUI       0.042700
     42 H16         82.5110   113.6570    99.4330 hc         1 FUI       0.042700
     43 H17         89.0770   116.1550    98.3910 ha         1 FUI       0.128000
     44 H18         87.6050   114.1460    94.9060 ha         1 FUI       0.128000
     45 H19         85.3150   114.6100    95.5840 ha         1 FUI       0.133000
     46 H20         82.4880   116.6220    98.9220 hn         1 FUI       0.317500
     47 H21         84.5970   116.4690    98.7490 hn         1 FUI       0.144000
     48 C12         77.6700   114.5930    98.0510 c3         1 FUI       0.196100
@<TRIPOS>BOND
     1     1    15 ar  
     2     1    16 ar  
     3     1    27 1   
     4     2     3 ar  
     5     2     7 ar  
     6     2    28 1   
     7     3     4 ar  
     8     3    29 1   
     9     4     5 ar  
    10     4    30 1   
    11     5     6 ar  
    12     5    31 1   
    13     6     7 ar  
    14     6    32 1   
    15     7    20 1   
    16     8     9 1   
    17     8    20 1   
    18     8    24 2   
    19     9    10 2   
    20     9    22 1   
    21    10    11 1   
    22    10    21 1   
    23    11    12 1   
    24    11    13 1   
    25    11    36 1   
    26    12    37 1   
    27    12    38 1   
    28    12    39 1   
    29    13    40 1   
    30    13    41 1   
    31    13    42 1   
    32    14    22 1   
    33    14    23 1   
    34    14    25 2   
    35    15    19 ar  
    36    15    23 1   
    37    16    17 ar  
    38    16    43 1   
    39    17    18 ar  
    40    17    26 1   
    41    18    19 ar  
    42    18    44 1   
    43    19    45 1   
    44    20    21 1   
    45    21    48 1   
    46    22    46 1   
    47    23    47 1   
    48    33    48 1   
    49    34    48 1   
    50    35    48 1   
@<TRIPOS>SUBSTRUCTURE
     1 FUI         1 TEMP              0 ****  ****    0 ROOT
