@<TRIPOS>MOLECULE
FUI
   48    50     1     0     0
SMALL
No Charge or Current Charge


@<TRIPOS>ATOM
      1 C21         87.0520   115.5630    98.4420 ca         1 FUI      -0.151000
      2 C01         77.2230   114.6550    95.0360 ca         1 FUI      -0.095500
      3 C02         76.2680   114.7970    94.0140 ca         1 FUI      -0.107000
      4 C03         76.2370   115.9670    93.2380 ca         1 FUI      -0.104000
      5 C04         77.1640   116.9940    93.4840 ca         1 FUI      -0.107000
      6 C05         78.1200   116.8510    94.5060 ca         1 FUI      -0.095500
      7 C06         78.1570   115.6800    95.2920 ca         1 FUI       0.041600
      8 C08         80.4970   115.8370    96.2640 c          1 FUI       0.562200
      9 C09         81.0820   115.2030    97.4520 cc         1 FUI      -0.162600
     10 C10         80.1130   114.6100    98.2310 cd         1 FUI       0.146800
     11 C13         80.2360   113.9070    99.5730 c3         1 FUI      -0.014500
     12 C14         80.5740   114.8960   100.7110 c3         1 FUI      -0.083600
     13 C15         81.2150   112.7120    99.5270 c3         1 FUI      -0.083600
     14 C18         83.5750   115.3710    97.0030 c          1 FUI       0.666100
     15 C20         86.1010   115.6080    97.4040 ca         1 FUI       0.006000
     16 C22         88.4250   115.6880    98.1660 ca         1 FUI      -0.073000
     17 C23         88.8600   115.8650    96.8430 ca         1 FUI       0.086000
     18 C24         87.9230   115.9180    95.7990 ca         1 FUI      -0.073000
     19 C25         86.5490   115.7920    96.0760 ca         1 FUI      -0.151000
     20 N07         79.1320   115.5310    96.3420 n          1 FUI      -0.184400
     21 N11         78.8840   114.8080    97.5790 na         1 FUI      -0.388400
     22 N17         82.4480   115.2610    97.8040 ns         1 FUI      -0.409100
     23 N19         84.7310   115.4780    97.7620 ns         1 FUI      -0.161000
     24 O16         81.0360   116.4960    95.3840 o          1 FUI      -0.522000
     25 O27         83.5490   115.3300    95.7830 o          1 FUI      -0.599100
     26 Cl26        90.5760   116.0230    96.4940 cl         1 FUI      -0.208000
     27 H1          86.7280   115.4260    99.4720 ha         1 FUI       0.133000
     28 H2          77.2450   113.7380    95.6190 ha         1 FUI       0.127500
     29 H3          75.5540   113.9990    93.8220 ha         1 FUI       0.117000
     30 H4          75.4980   116.0780    92.4470 ha         1 FUI       0.115000
     31 H5          77.1400   117.9020    92.8860 ha         1 FUI       0.117000
     32 H6          78.8200   117.6600    94.6930 ha         1 FUI       0.127500
     33 H7          77.6770   115.2400    99.2740 h1         1 FUI       0.055367
     34 H8          77.0010   115.8020    97.7270 h1         1 FUI       0.055367
     35 H9          76.9780   114.0600    98.1300 h1         1 FUI       0.055367
     36 H10         79.2580   113.4760    99.8210 hc         1 FUI       0.054700
     37 H11         80.5680   114.3850   101.6810 hc         1 FUI       0.042700
     38 H12         81.5630   115.3460   100.5680 hc         1 FUI       0.042700
     39 H13         79.8330   115.7040   100.7500 hc         1 FUI       0.042700
     40 H14         81.1800   112.1500   100.4680 hc         1 FUI       0.042700
     41 H15         80.9460   112.0270    98.7140 hc         1 FUI       0.042700
     42 H16         82.2480   113.0410    99.3710 hc         1 FUI       0.042700
     43 H17         89.1510   115.6490    98.9740 ha         1 FUI       0.128000
     44 H18         88.2620   116.0590    94.7760 ha         1 FUI       0.128000
     45 H19         85.8530   115.8470    95.2450 ha         1 FUI       0.133000
     46 H20         82.6720   115.1330    98.7830 hn         1 FUI       0.317500
     47 H21         84.5780   115.4700    98.7610 hn         1 FUI       0.144000
     48 C12         77.5550   114.9890    98.2130 c3         1 FUI       0.196100
@<TRIPOS>BOND
     1     1    15 ar  
     2     1    16 ar  
     3     1    27 1   
     4     2     3 ar  
     5     2     7 ar  
     6     2    28 1   
     7     3     4 ar  
     8     3    29 1   
     9     4     5 ar  
    10     4    30 1   
    11     5     6 ar  
    12     5    31 1   
    13     6     7 ar  
    14     6    32 1   
    15     7    20 1   
    16     8     9 1   
    17     8    20 1   
    18     8    24 2   
    19     9    10 2   
    20     9    22 1   
    21    10    11 1   
    22    10    21 1   
    23    11    12 1   
    24    11    13 1   
    25    11    36 1   
    26    12    37 1   
    27    12    38 1   
    28    12    39 1   
    29    13    40 1   
    30    13    41 1   
    31    13    42 1   
    32    14    22 1   
    33    14    23 1   
    34    14    25 2   
    35    15    19 ar  
    36    15    23 1   
    37    16    17 ar  
    38    16    43 1   
    39    17    18 ar  
    40    17    26 1   
    41    18    19 ar  
    42    18    44 1   
    43    19    45 1   
    44    20    21 1   
    45    21    48 1   
    46    22    46 1   
    47    23    47 1   
    48    33    48 1   
    49    34    48 1   
    50    35    48 1   
@<TRIPOS>SUBSTRUCTURE
     1 FUI         1 TEMP              0 ****  ****    0 ROOT
