@<TRIPOS>MOLECULE
FUJ
   27    28     1     0     0
SMALL
No Charge or Current Charge


@<TRIPOS>ATOM
      1 C01          5.6880     1.7170    -0.0040 c3         1 FUJ       0.159900
      2 C03          3.6020     0.4010     0.0140 ca         1 FUJ       0.129100
      3 C04          2.7870     1.5500    -0.0060 ca         1 FUJ      -0.246000
      4 C05          1.3860     1.4250    -0.0070 ca         1 FUJ      -0.017000
      5 C13         -1.1530    -1.3210     0.0350 cc         1 FUJ      -0.326200
      6 C17          1.6070    -0.9890     0.0340 ca         1 FUJ       0.183100
      7 C18          3.0030    -0.8650     0.0340 ca         1 FUJ      -0.194000
      8 C06          0.7790     0.1490     0.0140 ca         1 FUJ      -0.144800
      9 C07         -0.6860    -0.0270     0.0140 cd         1 FUJ       0.126600
     10 C08         -1.6020     1.1820    -0.0080 c3         1 FUJ      -0.360200
     11 C14         -0.2800    -2.4930     0.0560 c          1 FUJ       0.669300
     12 O02          4.9790     0.4650     0.0150 os         1 FUJ      -0.356100
     13 O10         -3.8250     0.2280     1.2280 o          1 FUJ      -0.925167
     14 O11         -4.0600     2.3090    -0.0310 o          1 FUJ      -0.925167
     15 O12         -3.8200     0.1870    -1.2210 o          1 FUJ      -0.925167
     16 O15         -0.7190    -3.6340     0.0740 o          1 FUJ      -0.551000
     17 O16          1.0630    -2.2470     0.0540 os         1 FUJ      -0.375200
     18 P09         -3.4280     0.9590    -0.0080 p5         1 FUJ       1.291500
     19 H1           5.4370     2.3200     0.8780 h1         1 FUJ       0.027700
     20 H2           6.7700     1.5400     0.0000 h1         1 FUJ       0.027700
     21 H3           5.4400     2.2900    -0.9060 h1         1 FUJ       0.027700
     22 H4           3.2170     2.5470    -0.0220 ha         1 FUJ       0.098000
     23 H5           0.7830     2.3300    -0.0230 ha         1 FUJ       0.137000
     24 H6          -2.2040    -1.5710     0.0370 ha         1 FUJ       0.281000
     25 H7           3.6230    -1.7560     0.0500 ha         1 FUJ       0.122000
     26 H8          -1.3940     1.8140     0.8620 hc         1 FUJ       0.031700
     27 H9          -1.3900     1.7850    -0.8970 hc         1 FUJ       0.031700
@<TRIPOS>BOND
     1     1    12 1   
     2     1    19 1   
     3     1    20 1   
     4     1    21 1   
     5     2     3 ar  
     6     2     7 ar  
     7     2    12 1   
     8     3     4 ar  
     9     3    22 1   
    10     4     8 ar  
    11     4    23 1   
    12     5     9 2   
    13     5    11 1   
    14     5    24 1   
    15     6     7 ar  
    16     6     8 ar  
    17     6    17 1   
    18     7    25 1   
    19     8     9 1   
    20     9    10 1   
    21    10    18 1   
    22    10    26 1   
    23    10    27 1   
    24    11    16 2   
    25    11    17 1   
    26    13    18 1   
    27    14    18 1   
    28    15    18 1   
@<TRIPOS>SUBSTRUCTURE
     1 FUJ         1 TEMP              0 ****  ****    0 ROOT
