@<TRIPOS>MOLECULE
FUJ
   27    28     1     0     0
SMALL
bcc


@<TRIPOS>ATOM
      1 C01          5.5690     1.6850    -0.0130 c3         1 FUJ       0.136700
      2 C03          3.5710     0.4090     0.0070 ca         1 FUJ       0.129100
      3 C04          2.7650     1.5540    -0.0060 ca         1 FUJ      -0.264000
      4 C05          1.3910     1.4190    -0.0020 ca         1 FUJ      -0.035000
      5 C13         -1.1310    -1.2970     0.0580 cc         1 FUJ      -0.276200
      6 C17          1.6010    -0.9530     0.0290 ca         1 FUJ       0.183100
      7 C18          2.9800    -0.8520     0.0240 ca         1 FUJ      -0.212000
      8 C06          0.7680     0.1700     0.0160 ca         1 FUJ      -0.144800
      9 C07         -0.6710    -0.0240     0.0290 cd         1 FUJ       0.126600
     10 C08         -1.5710     1.1680     0.0140 c3         1 FUJ      -0.202400
     11 C14         -0.2560    -2.4390     0.0680 c          1 FUJ       0.744800
     12 O02          4.9100     0.4320     0.0040 os         1 FUJ      -0.332900
     13 O10         -3.7850     0.1570     1.2360 o          1 FUJ      -0.925167
     14 O11         -3.9420     2.3770    -0.0500 o          1 FUJ      -0.925167
     15 O12         -3.7120     0.1600    -1.3310 o          1 FUJ      -0.925167
     16 O15         -0.5980    -3.6000     0.0880 o          1 FUJ      -0.626500
     17 O16          1.0850    -2.2030     0.0500 os         1 FUJ      -0.375200
     18 P09         -3.4330     0.9310    -0.0380 p5         1 FUJ       1.133700
     19 H1           5.3300     2.2830     0.8700 h1         1 FUJ       0.027700
     20 H2           6.6350     1.4710    -0.0150 h1         1 FUJ       0.027700
     21 H3           5.3230     2.2610    -0.9080 h1         1 FUJ       0.027700
     22 H4           3.1950     2.5460    -0.0190 ha         1 FUJ       0.116000
     23 H5           0.7810     2.3120    -0.0100 ha         1 FUJ       0.155000
     24 H6          -2.1900    -1.5010     0.0830 ha         1 FUJ       0.231000
     25 H7           3.5950    -1.7430     0.0340 ha         1 FUJ       0.140000
     26 H8          -1.3250     1.7800     0.8900 hc         1 FUJ       0.031700
     27 H9          -1.2830     1.7920    -0.8410 hc         1 FUJ       0.031700
@<TRIPOS>BOND
     1     1    12 1   
     2     1    19 1   
     3     1    20 1   
     4     1    21 1   
     5     2     3 ar  
     6     2     7 ar  
     7     2    12 1   
     8     3     4 ar  
     9     3    22 1   
    10     4     8 ar  
    11     4    23 1   
    12     5     9 2   
    13     5    11 1   
    14     5    24 1   
    15     6     7 ar  
    16     6     8 ar  
    17     6    17 1   
    18     7    25 1   
    19     8     9 1   
    20     9    10 1   
    21    10    18 1   
    22    10    26 1   
    23    10    27 1   
    24    11    16 2   
    25    11    17 1   
    26    13    18 1   
    27    14    18 1   
    28    15    18 1   
@<TRIPOS>SUBSTRUCTURE
     1 FUJ         1 TEMP              0 ****  ****    0 ROOT
