@<TRIPOS>MOLECULE
FUK
   81    85     1     0     0
SMALL
bcc


@<TRIPOS>ATOM
      1 C1          -5.7050     1.0140    -2.9080 c3         1 FUK      -0.089100
      2 C2          -4.7720     0.3950    -1.8820 c6         1 FUK       0.158500
      3 C3          -3.3790     1.0050    -1.9700 c6         1 FUK       0.131800
      4 N4          -2.4620     0.4100    -1.0060 n3         1 FUK      -0.703600
      5 C5          -1.1900     1.0830    -1.0280 c3         1 FUK       0.090800
      6 C6          -1.1870     2.3730    -0.2260 c          1 FUK       0.678100
      7 C10          1.5070     4.1470     1.5150 c5         1 FUK      -0.110300
      8 C11          2.1400     5.5330     1.4730 c3         1 FUK      -0.077600
      9 C12          1.4850     3.6100     2.9490 c3         1 FUK      -0.077600
     10 C13          2.2260     3.1630     0.6310 ca         1 FUK       0.379600
     11 C15          3.9980     2.0040    -0.1730 ca         1 FUK       0.384200
     12 C16          3.1970     1.2630    -1.0230 ca         1 FUK      -0.211600
     13 C19          3.7420     0.1830    -1.9360 c3         1 FUK       0.250700
     14 C21          2.9720    -1.1100    -1.7570 ca         1 FUK      -0.146300
     15 C22          2.4760    -1.7960    -2.8580 ca         1 FUK      -0.088500
     16 C23          1.7970    -2.9990    -2.7100 ca         1 FUK      -0.171500
     17 C24          1.6320    -3.5060    -1.4370 ca         1 FUK       0.140900
     18 C26          2.1120    -2.8540    -0.3170 ca         1 FUK      -0.171500
     19 C27          2.7790    -1.6510    -0.4860 ca         1 FUK      -0.088500
     20 C28         -2.3670    -1.0390    -1.2050 c6         1 FUK       0.151500
     21 C31         -1.7040    -0.6490     1.9020 c6         1 FUK       0.157000
     22 C35         -2.3030    -3.0540     3.2080 c6         1 FUK       0.131900
     23 C36         -1.5520    -3.0710     1.8770 c6         1 FUK       0.157000
     24 C37         -1.9300    -4.3620     1.1620 c3         1 FUK      -0.109600
     25 C38         -3.7720    -1.6410    -1.1330 c6         1 FUK       0.152800
     26 O7          -2.2080     2.9130     0.1540 o          1 FUK      -0.562100
     27 N8           0.0270     2.9190     0.0790 n          1 FUK      -0.385000
     28 C9           0.0950     4.1400     0.8980 c5         1 FUK       0.094000
     29 N14          3.5170     2.9510     0.6400 nb         1 FUK      -0.628000
     30 C17          1.8230     1.5200    -1.0490 ca         1 FUK      -0.133000
     31 C18          1.3220     2.4650    -0.1780 ca         1 FUK      -0.036700
     32 O20          5.1270    -0.0110    -1.7960 oh         1 FUK      -0.577800
     33 F25          0.9700    -4.6640    -1.2780 f          1 FUK      -0.141900
     34 C29         -1.4520    -1.8040    -0.2380 c3         1 FUK       0.190800
     35 N30         -1.9180    -1.8710     1.1300 n3         1 FUK      -0.746600
     36 C33         -2.5130    -0.7510     3.1840 c6         1 FUK       0.131900
     37 O34         -2.1200    -1.8710     3.9450 os         1 FUK      -0.403600
     38 N39         -4.7370    -1.0510    -2.0400 n7         1 FUK      -0.783200
     39 H41         -5.3610     0.8090    -3.9250 hc         1 FUK       0.039367
     40 H42         -6.7130     0.6140    -2.8080 hc         1 FUK       0.039367
     41 H40         -5.7580     2.0970    -2.7880 hc         1 FUK       0.039367
     42 H43         -5.1600     0.6040    -0.8780 h1         1 FUK       0.081700
     43 H44         -3.0030     0.8770    -3.0030 h1         1 FUK       0.040200
     44 H45         -3.4420     2.0770    -1.7840 h1         1 FUK       0.040200
     45 H46         -0.4270     0.4350    -0.6040 h1         1 FUK       0.055200
     46 H47         -0.8540     1.3100    -2.0550 h1         1 FUK       0.055200
     47 H51          2.1890     5.9160     0.4530 hc         1 FUK       0.044700
     48 H52          1.5610     6.2380     2.0710 hc         1 FUK       0.044700
     49 H50          3.1540     5.5050     1.8730 hc         1 FUK       0.044700
     50 H55          2.4990     3.5070     3.3370 hc         1 FUK       0.044700
     51 H53          0.9360     4.2890     3.6040 hc         1 FUK       0.044700
     52 H54          1.0040     2.6320     3.0020 hc         1 FUK       0.044700
     53 H56          5.0690     1.8430    -0.1360 h4         1 FUK       0.032100
     54 H58          3.6000     0.5180    -2.9690 h1         1 FUK       0.087700
     55 H60          2.6130    -1.3890    -3.8520 ha         1 FUK       0.140500
     56 H61          1.4050    -3.5270    -3.5690 ha         1 FUK       0.155000
     57 H62          1.9560    -3.2710     0.6700 ha         1 FUK       0.155000
     58 H63          3.1390    -1.1290     0.3930 ha         1 FUK       0.140500
     59 H64         -1.9630    -1.2510    -2.2150 h1         1 FUK       0.012700
     60 H67         -2.1420     0.1680     1.3260 h1         1 FUK       0.060200
     61 H74         -3.3730    -3.2140     3.0010 h1         1 FUK       0.050950
     62 H73         -1.9540    -3.8800     3.8320 h1         1 FUK       0.050950
     63 H75         -0.4700    -3.1080     2.0910 h1         1 FUK       0.060200
     64 H76         -2.9550    -4.3160     0.7910 hc         1 FUK       0.038533
     65 H77         -1.2720    -4.5970     0.3270 hc         1 FUK       0.038533
     66 H78         -1.8610    -5.2010     1.8560 hc         1 FUK       0.038533
     67 H80         -3.7040    -2.7130    -1.3370 h1         1 FUK       0.069700
     68 H79         -4.1380    -1.5360    -0.1090 h1         1 FUK       0.069700
     69 H48         -0.6850     4.1320     1.6560 h1         1 FUK       0.069200
     70 H49         -0.0640     5.0120     0.2570 h1         1 FUK       0.069200
     71 H57          1.2080     0.9740    -1.7480 ha         1 FUK       0.144000
     72 H59          5.3040    -0.4510    -0.9570 ho         1 FUK       0.409000
     73 H65         -1.4280    -2.8130    -0.6450 h1         1 FUK       0.031700
     74 H66         -0.4080    -1.4640    -0.3220 h1         1 FUK       0.031700
     75 H71         -2.3650     0.1340     3.8060 h1         1 FUK       0.050950
     76 H72         -3.5810    -0.8160     2.9310 h1         1 FUK       0.050950
     77 H81         -4.4600    -1.2600    -2.9950 hn         1 FUK       0.338800
     78 C32         -0.2390    -0.3150     2.2120 c3         1 FUK      -0.109600
     79 H68          0.1870    -0.9780     2.9650 hc         1 FUK       0.038533
     80 H69          0.4040    -0.3740     1.3320 hc         1 FUK       0.038533
     81 H70         -0.1650     0.7030     2.5980 hc         1 FUK       0.038533
@<TRIPOS>BOND
     1     1     2 1   
     2     1    39 1   
     3     1    40 1   
     4     1    41 1   
     5     2     3 1   
     6     2    38 1   
     7     2    42 1   
     8     3     4 1   
     9     3    43 1   
    10     3    44 1   
    11     4     5 1   
    12     4    20 1   
    13     5     6 1   
    14     5    45 1   
    15     5    46 1   
    16     6    26 2   
    17     6    27 1   
    18     7     8 1   
    19     7     9 1   
    20     7    10 1   
    21     7    28 1   
    22     8    47 1   
    23     8    48 1   
    24     8    49 1   
    25     9    50 1   
    26     9    51 1   
    27     9    52 1   
    28    10    29 ar  
    29    10    31 ar  
    30    11    12 ar  
    31    11    29 ar  
    32    11    53 1   
    33    12    13 1   
    34    12    30 ar  
    35    13    14 1   
    36    13    32 1   
    37    13    54 1   
    38    14    15 ar  
    39    14    19 ar  
    40    15    16 ar  
    41    15    55 1   
    42    16    17 ar  
    43    16    56 1   
    44    17    18 ar  
    45    17    33 1   
    46    18    19 ar  
    47    18    57 1   
    48    19    58 1   
    49    20    25 1   
    50    20    34 1   
    51    20    59 1   
    52    21    35 1   
    53    21    36 1   
    54    21    60 1   
    55    21    78 1   
    56    22    23 1   
    57    22    37 1   
    58    22    61 1   
    59    22    62 1   
    60    23    24 1   
    61    23    35 1   
    62    23    63 1   
    63    24    64 1   
    64    24    65 1   
    65    24    66 1   
    66    25    38 1   
    67    25    67 1   
    68    25    68 1   
    69    27    28 1   
    70    27    31 1   
    71    28    69 1   
    72    28    70 1   
    73    30    31 ar  
    74    30    71 1   
    75    32    72 1   
    76    34    35 1   
    77    34    73 1   
    78    34    74 1   
    79    36    37 1   
    80    36    75 1   
    81    36    76 1   
    82    38    77 1   
    83    78    79 1   
    84    78    80 1   
    85    78    81 1   
@<TRIPOS>SUBSTRUCTURE
     1 FUK         1 TEMP              0 ****  ****    0 ROOT
