@<TRIPOS>MOLECULE
FUK
   81    85     1     0     0
SMALL
No Charge or Current Charge


@<TRIPOS>ATOM
      1 C1          -5.7860     0.7770    -3.1510 c3         1 FUK      -0.089100
      2 C2          -4.8240     0.2500    -2.0580 c6         1 FUK       0.158500
      3 C3          -3.4330     0.9570    -2.1210 c6         1 FUK       0.131800
      4 N4          -2.4600     0.4420    -1.1030 n3         1 FUK      -0.703600
      5 C5          -1.1440     1.1680    -1.1880 c3         1 FUK       0.090800
      6 C6          -1.0270     2.5980    -0.5640 c          1 FUK       0.611100
      7 C10          1.6480     4.0650     1.6540 c5         1 FUK      -0.110300
      8 C11          2.3570     5.4440     1.6590 c3         1 FUK      -0.077600
      9 C12          1.5580     3.5480     3.1150 c3         1 FUK      -0.077600
     10 C13          2.3620     3.0490     0.7610 ca         1 FUK       0.314300
     11 C15          4.1450     1.7840     0.0040 ca         1 FUK       0.318900
     12 C16          3.3430     1.1470    -0.9750 ca         1 FUK      -0.146300
     13 C19          3.8920     0.0690    -1.9100 c3         1 FUK       0.273900
     14 C21          2.9770    -1.1550    -1.9210 ca         1 FUK      -0.146300
     15 C22          2.3050    -1.5320    -3.1020 ca         1 FUK      -0.070500
     16 C23          1.4350    -2.6370    -3.1000 ca         1 FUK      -0.153500
     17 C24          1.2360    -3.3690    -1.9200 ca         1 FUK       0.176000
     18 C26          1.8980    -3.0020    -0.7390 ca         1 FUK      -0.153500
     19 C27          2.7640    -1.8950    -0.7370 ca         1 FUK      -0.070500
     20 C28         -2.3460    -1.0700    -1.1770 c6         1 FUK       0.151500
     21 C31         -2.1890    -0.5620     2.0190 c6         1 FUK       0.157000
     22 C35         -2.1240    -2.9990     3.5860 c6         1 FUK       0.155100
     23 C36         -1.3550    -2.8990     2.2220 c6         1 FUK       0.157000
     24 C37         -1.2700    -4.3240     1.6020 c3         1 FUK      -0.109600
     25 C38         -3.7570    -1.7620    -1.1740 c6         1 FUK       0.152800
     26 O7          -1.9930     3.3570    -0.5160 o          1 FUK      -0.562100
     27 N8           0.1970     2.9780     0.0520 n          1 FUK      -0.225400
     28 C9           0.2090     4.1420     0.9730 c5         1 FUK       0.094000
     29 N14          3.6720     2.7250     0.8590 nb         1 FUK      -0.628000
     30 C17          1.9860     1.5170    -1.0750 ca         1 FUK      -0.115000
     31 C18          1.5090     2.4810    -0.1700 ca         1 FUK      -0.064000
     32 O20          5.2080    -0.3430    -1.5350 oh         1 FUK      -0.640000
     33 F25          0.4000    -4.4300    -1.9210 f          1 FUK      -0.177000
     34 C29         -1.4560    -1.7860    -0.0790 c3         1 FUK       0.190800
     35 N30         -2.0120    -1.8840     1.3160 n3         1 FUK      -0.746600
     36 C33         -2.9870    -0.7680     3.3440 c6         1 FUK       0.155100
     37 O34         -2.2940    -1.7020     4.2040 os         1 FUK      -0.450000
     38 N39         -4.6880    -1.2200    -2.2050 n7         1 FUK      -0.838400
     39 H41         -5.3920     0.5900    -4.1570 hc         1 FUK       0.039367
     40 H42         -6.7690     0.2960    -3.0780 hc         1 FUK       0.039367
     41 H40         -5.9400     1.8580    -3.0480 hc         1 FUK       0.039367
     42 H43         -5.2750     0.4740    -1.0780 h1         1 FUK       0.081700
     43 H44         -3.0190     0.8220    -3.1320 h1         1 FUK       0.040200
     44 H45         -3.5930     2.0360    -1.9880 h1         1 FUK       0.040200
     45 H46         -0.3840     0.5760    -0.6780 h1         1 FUK       0.055200
     46 H47         -0.8230     1.2460    -2.2350 h1         1 FUK       0.055200
     47 H51          2.4670     5.8350     0.6400 hc         1 FUK       0.044700
     48 H52          1.7880     6.1830     2.2380 hc         1 FUK       0.044700
     49 H50          3.3600     5.3790     2.0970 hc         1 FUK       0.044700
     50 H55          2.5540     3.4440     3.5640 hc         1 FUK       0.044700
     51 H53          0.9770     4.2310     3.7460 hc         1 FUK       0.044700
     52 H54          1.0750     2.5650     3.1570 hc         1 FUK       0.044700
     53 H56          5.2010     1.5430     0.1180 h4         1 FUK       0.032100
     54 H58          3.9180     0.4970    -2.9230 h1         1 FUK       0.087700
     55 H60          2.4490    -0.9670    -4.0220 ha         1 FUK       0.122500
     56 H61          0.9150    -2.9260    -4.0090 ha         1 FUK       0.137000
     57 H62          1.7380    -3.5710     0.1720 ha         1 FUK       0.137000
     58 H63          3.2680    -1.6080     0.1840 ha         1 FUK       0.122500
     59 H64         -1.8750    -1.3130    -2.1410 h1         1 FUK       0.012700
     60 H67         -2.7950     0.1080     1.3950 h1         1 FUK       0.060200
     61 H74         -3.1160    -3.4450     3.4210 h1         1 FUK       0.050950
     62 H73         -1.5730    -3.6500     4.2790 h1         1 FUK       0.050950
     63 H75         -0.3230    -2.5890     2.4430 h1         1 FUK       0.060200
     64 H76         -2.2450    -4.6540     1.2260 hc         1 FUK       0.038533
     65 H77         -0.5510    -4.3700     0.7780 hc         1 FUK       0.038533
     66 H78         -0.9360    -5.0560     2.3470 hc         1 FUK       0.038533
     67 H80         -3.6290    -2.8440    -1.3290 h1         1 FUK       0.069700
     68 H79         -4.2130    -1.6330    -0.1810 h1         1 FUK       0.069700
     69 H48         -0.6020     4.0840     1.7120 h1         1 FUK       0.069200
     70 H49          0.0790     5.0720     0.4040 h1         1 FUK       0.069200
     71 H57          1.3620     1.0680    -1.8390 ha         1 FUK       0.126000
     72 H59          5.4200    -1.1210    -2.0940 ho         1 FUK       0.448000
     73 H65         -1.3260    -2.7980    -0.4780 h1         1 FUK       0.031700
     74 H66         -0.4480    -1.3570    -0.0640 h1         1 FUK       0.031700
     75 H71         -3.1020     0.1910     3.8700 h1         1 FUK       0.050950
     76 H72         -3.9910    -1.1550     3.1200 h1         1 FUK       0.050950
     77 H81         -4.2820    -1.4060    -3.1280 hn         1 FUK       0.394000
     78 C32         -0.8510     0.1840     2.3260 c3         1 FUK      -0.109600
     79 H68         -0.2500    -0.3420     3.0760 hc         1 FUK       0.038533
     80 H69         -0.2220     0.3050     1.4410 hc         1 FUK       0.038533
     81 H70         -1.0520     1.1880     2.7180 hc         1 FUK       0.038533
@<TRIPOS>BOND
     1     1     2 1   
     2     1    39 1   
     3     1    40 1   
     4     1    41 1   
     5     2     3 1   
     6     2    38 1   
     7     2    42 1   
     8     3     4 1   
     9     3    43 1   
    10     3    44 1   
    11     4     5 1   
    12     4    20 1   
    13     5     6 1   
    14     5    45 1   
    15     5    46 1   
    16     6    26 2   
    17     6    27 1   
    18     7     8 1   
    19     7     9 1   
    20     7    10 1   
    21     7    28 1   
    22     8    47 1   
    23     8    48 1   
    24     8    49 1   
    25     9    50 1   
    26     9    51 1   
    27     9    52 1   
    28    10    29 ar  
    29    10    31 ar  
    30    11    12 ar  
    31    11    29 ar  
    32    11    53 1   
    33    12    13 1   
    34    12    30 ar  
    35    13    14 1   
    36    13    32 1   
    37    13    54 1   
    38    14    15 ar  
    39    14    19 ar  
    40    15    16 ar  
    41    15    55 1   
    42    16    17 ar  
    43    16    56 1   
    44    17    18 ar  
    45    17    33 1   
    46    18    19 ar  
    47    18    57 1   
    48    19    58 1   
    49    20    25 1   
    50    20    34 1   
    51    20    59 1   
    52    21    35 1   
    53    21    36 1   
    54    21    60 1   
    55    21    78 1   
    56    22    23 1   
    57    22    37 1   
    58    22    61 1   
    59    22    62 1   
    60    23    24 1   
    61    23    35 1   
    62    23    63 1   
    63    24    64 1   
    64    24    65 1   
    65    24    66 1   
    66    25    38 1   
    67    25    67 1   
    68    25    68 1   
    69    27    28 1   
    70    27    31 1   
    71    28    69 1   
    72    28    70 1   
    73    30    31 ar  
    74    30    71 1   
    75    32    72 1   
    76    34    35 1   
    77    34    73 1   
    78    34    74 1   
    79    36    37 1   
    80    36    75 1   
    81    36    76 1   
    82    38    77 1   
    83    78    79 1   
    84    78    80 1   
    85    78    81 1   
@<TRIPOS>SUBSTRUCTURE
     1 FUK         1 TEMP              0 ****  ****    0 ROOT
