@<TRIPOS>MOLECULE
FUL
   23    23     1     0     0
SMALL
abcg2


@<TRIPOS>ATOM
      1 C1           9.9820    38.5070     9.9360 c6         1 FUL       0.382300
      2 C2          10.8110    38.5810     8.6470 c6         1 FUL       0.095300
      3 O2          10.2550    37.7430     7.6600 oh         1 FUL      -0.700000
      4 C3          10.9220    40.0360     8.2070 c6         1 FUL       0.154300
      5 O3          11.7200    40.0950     7.0550 oh         1 FUL      -0.681000
      6 C4          11.4550    40.8930     9.3580 c6         1 FUL       0.108300
      7 O4          12.7960    40.5400     9.5910 oh         1 FUL      -0.688000
      8 C5          10.5710    40.6790    10.5910 c6         1 FUL       0.148300
      9 C6          11.0440    41.4500    11.8060 c3         1 FUL      -0.091100
     10 O5          10.5300    39.3050    10.9360 os         1 FUL      -0.425000
     11 O1           9.9620    37.2260    10.4700 oh         1 FUL      -0.697000
     12 H1           8.9540    38.8560     9.7040 h2         1 FUL       0.000700
     13 H2          11.8090    38.1820     8.8540 h1         1 FUL       0.127700
     14 HO2          9.4110    38.1130     7.3750 ho         1 FUL       0.495000
     15 H3           9.9010    40.4010     7.9980 h1         1 FUL       0.019700
     16 HO3         11.6880    40.9920     6.7070 ho         1 FUL       0.501000
     17 H4          11.3670    41.9510     9.0670 h1         1 FUL       0.030700
     18 HO4         13.2110    41.2300    10.1170 ho         1 FUL       0.504000
     19 H5           9.5590    41.0280    10.3310 h1         1 FUL       0.033700
     20 H61         11.1000    42.5140    11.5760 hc         1 FUL       0.050033
     21 H62         12.0270    41.1190    12.1430 hc         1 FUL       0.050033
     22 H63         10.3480    41.3280    12.6360 hc         1 FUL       0.050033
     23 HO1          9.7350    36.6090     9.7650 ho         1 FUL       0.531000
@<TRIPOS>BOND
     1     1     2 1   
     2     1    10 1   
     3     1    11 1   
     4     1    12 1   
     5     2     3 1   
     6     2     4 1   
     7     2    13 1   
     8     3    14 1   
     9     4     5 1   
    10     4     6 1   
    11     4    15 1   
    12     5    16 1   
    13     6     7 1   
    14     6     8 1   
    15     6    17 1   
    16     7    18 1   
    17     8     9 1   
    18     8    10 1   
    19     8    19 1   
    20     9    20 1   
    21     9    21 1   
    22     9    22 1   
    23    11    23 1   
@<TRIPOS>SUBSTRUCTURE
     1 FUL         1 TEMP              0 ****  ****    0 ROOT
