@<TRIPOS>MOLECULE
FUL
   23    23     1     0     0
SMALL
No Charge or Current Charge


@<TRIPOS>ATOM
      1 C1           9.9830    38.4520    10.0370 c6         1 FUL       0.382300
      2 C2          10.6630    38.5780     8.6380 c6         1 FUL       0.095300
      3 O2          10.0300    37.7260     7.6510 oh         1 FUL      -0.700000
      4 C3          10.6250    40.0700     8.1840 c6         1 FUL       0.154300
      5 O3          11.3350    40.2310     6.9480 oh         1 FUL      -0.681000
      6 C4          11.2660    40.9850     9.2720 c6         1 FUL       0.108300
      7 O4          12.6900    40.7330     9.3130 oh         1 FUL      -0.688000
      8 C5          10.5570    40.7020    10.6430 c6         1 FUL       0.148300
      9 C6          11.1530    41.5030    11.8290 c3         1 FUL      -0.091100
     10 O5          10.6440    39.3010    10.9860 os         1 FUL      -0.425000
     11 O1          10.0830    37.1180    10.5140 oh         1 FUL      -0.697000
     12 H1           8.9230    38.7360     9.9640 h2         1 FUL       0.000700
     13 H2          11.7200    38.2940     8.7670 h1         1 FUL       0.127700
     14 HO2         10.2710    38.1160     6.7760 ho         1 FUL       0.495000
     15 H3           9.5750    40.3690     8.0510 h1         1 FUL       0.019700
     16 HO3         12.2520    40.4620     7.2360 ho         1 FUL       0.501000
     17 H4          11.0820    42.0350     8.9980 h1         1 FUL       0.030700
     18 HO4         13.0660    41.2900    10.0330 ho         1 FUL       0.504000
     19 H5           9.4950    40.9760    10.5570 h1         1 FUL       0.033700
     20 H61         11.1450    42.5800    11.6210 hc         1 FUL       0.050033
     21 H62         12.1870    41.2070    12.0440 hc         1 FUL       0.050033
     22 H63         10.5660    41.3400    12.7410 hc         1 FUL       0.050033
     23 HO1          9.8460    36.5760     9.7260 ho         1 FUL       0.531000
@<TRIPOS>BOND
     1     1     2 1   
     2     1    10 1   
     3     1    11 1   
     4     1    12 1   
     5     2     3 1   
     6     2     4 1   
     7     2    13 1   
     8     3    14 1   
     9     4     5 1   
    10     4     6 1   
    11     4    15 1   
    12     5    16 1   
    13     6     7 1   
    14     6     8 1   
    15     6    17 1   
    16     7    18 1   
    17     8     9 1   
    18     8    10 1   
    19     8    19 1   
    20     9    20 1   
    21     9    21 1   
    22     9    22 1   
    23    11    23 1   
@<TRIPOS>SUBSTRUCTURE
     1 FUL         1 TEMP              0 ****  ****    0 ROOT
