@<TRIPOS>MOLECULE
FUM
   10     9     1     0     0
SMALL
No Charge or Current Charge


@<TRIPOS>ATOM
      1 O1           2.8070    -0.8330    -0.0310 o          1 FUM      -0.775000
      2 C2           1.9590     0.0420    -0.0290 c          1 FUM       0.696200
      3 O3           2.2230     1.2330    -0.0310 o          1 FUM      -0.775000
      4 C4           0.5270    -0.3840    -0.0220 ce         1 FUM      -0.297200
      5 C5          -0.5730     0.4430    -0.0190 cf         1 FUM      -0.297200
      6 C6          -1.9980     0.0030    -0.0130 c          1 FUM       0.696200
      7 O7          -2.2510    -1.1900    -0.0110 o          1 FUM      -0.775000
      8 O8          -2.8530     0.8720    -0.0100 o          1 FUM      -0.775000
      9 H4           0.3740    -1.4620    -0.0210 ha         1 FUM       0.150000
     10 H5          -0.4190     1.5200    -0.0210 ha         1 FUM       0.150000
@<TRIPOS>BOND
     1     1     2 1   
     2     2     3 1   
     3     2     4 1   
     4     4     5 2   
     5     4     9 1   
     6     5     6 1   
     7     5    10 1   
     8     6     7 1   
     9     6     8 1   
@<TRIPOS>SUBSTRUCTURE
     1 FUM         1 TEMP              0 ****  ****    0 ROOT
