@<TRIPOS>MOLECULE
FUM
   10     9     1     0     0
SMALL
bcc


@<TRIPOS>ATOM
      1 O1           2.7940    -0.8590    -0.0250 o          1 FUM      -0.880300
      2 C2           1.9460     0.0600    -0.0290 c          1 FUM       0.906800
      3 O3           2.1810     1.2850    -0.0360 o          1 FUM      -0.880300
      4 C4           0.5020    -0.3880    -0.0250 ce         1 FUM      -0.247200
      5 C5          -0.5430     0.4370    -0.0170 cf         1 FUM      -0.247200
      6 C6          -1.9870    -0.0110    -0.0120 c          1 FUM       0.906800
      7 O7          -2.2230    -1.2370    -0.0070 o          1 FUM      -0.880300
      8 O8          -2.8340     0.9070    -0.0150 o          1 FUM      -0.880300
      9 H4           0.3260    -1.4600    -0.0260 ha         1 FUM       0.100000
     10 H5          -0.3670     1.5090    -0.0150 ha         1 FUM       0.100000
@<TRIPOS>BOND
     1     1     2 1   
     2     2     3 1   
     3     2     4 1   
     4     4     5 2   
     5     4     9 1   
     6     5     6 1   
     7     5    10 1   
     8     6     7 1   
     9     6     8 1   
@<TRIPOS>SUBSTRUCTURE
     1 FUM         1 TEMP              0 ****  ****    0 ROOT
