@<TRIPOS>MOLECULE
FUN
   31    32     1     0     0
SMALL
bcc


@<TRIPOS>ATOM
      1 N1          -4.3920    -0.5430    -1.5200 n8         1 FUN      -0.900700
      2 S1          -3.9130     0.2370    -0.1500 sy         1 FUN       1.306200
      3 O1          -4.2460     1.6380    -0.3500 o          1 FUN      -0.622300
      4 O2          -4.5140    -0.4820     0.9600 o          1 FUN      -0.622300
      5 C1          -2.1570     0.1340    -0.0340 ca         1 FUN      -0.417500
      6 C2          -1.4720    -1.0720     0.1260 ca         1 FUN       0.160400
      7 CL1         -2.3200    -2.5800     0.1870 cl         1 FUN      -0.155400
      8 C3          -0.1020    -1.1070     0.2200 ca         1 FUN      -0.286000
      9 C4           0.6570     0.0820     0.1570 ca         1 FUN       0.289600
     10 N2           1.9950     0.0490     0.2300 nu         1 FUN      -0.777600
     11 C5           2.7760    -1.1550     0.3700 c3         1 FUN       0.210500
     12 C6           4.2260    -0.8650     0.2470 cc         1 FUN       0.235000
     13 C7           5.2600    -0.9790     1.1150 cd         1 FUN      -0.262300
     14 C8           6.4280    -0.5630     0.4050 cd         1 FUN      -0.281300
     15 C9           6.0080    -0.2260    -0.8350 cc         1 FUN       0.235600
     16 O3           4.6750    -0.4070    -0.9430 os         1 FUN      -0.308800
     17 C10         -0.0300     1.3210     0.0100 ca         1 FUN      -0.251600
     18 C11         -1.4070     1.3050    -0.0850 ca         1 FUN       0.041000
     19 C12          0.6830     2.6630    -0.0480 c          1 FUN       0.937200
     20 O4          -0.0220     3.6730    -0.1930 o          1 FUN      -0.813300
     21 O5           1.9350     2.6520     0.0570 o          1 FUN      -0.813300
     22 HN11        -4.0060    -0.1390    -2.3660 hn         1 FUN       0.412800
     23 HN12        -4.2480    -1.5460    -1.4960 hn         1 FUN       0.412800
     24 H3           0.3880    -2.0630     0.3480 ha         1 FUN       0.126000
     25 HN2          2.4210     0.9790     0.2090 hn         1 FUN       0.521800
     26 H51          2.6100    -1.6330     1.3410 h1         1 FUN       0.043700
     27 H52          2.4860    -1.8880    -0.3920 h1         1 FUN       0.043700
     28 H7           5.1980    -1.3170     2.1370 ha         1 FUN       0.155000
     29 H8           7.4410    -0.5210     0.7730 ha         1 FUN       0.150000
     30 H9           6.5190     0.1430    -1.7100 h4         1 FUN       0.047100
     31 H11         -1.9120     2.2530    -0.2050 ha         1 FUN       0.183000
@<TRIPOS>BOND
     1     1     2 1   
     2     1    22 1   
     3     1    23 1   
     4     2     3 2   
     5     2     4 2   
     6     2     5 1   
     7     5     6 ar  
     8     5    18 ar  
     9     6     7 1   
    10     6     8 ar  
    11     8     9 ar  
    12     8    24 1   
    13     9    10 1   
    14     9    17 ar  
    15    10    11 1   
    16    10    25 1   
    17    11    12 1   
    18    11    26 1   
    19    11    27 1   
    20    12    13 2   
    21    12    16 1   
    22    13    14 1   
    23    13    28 1   
    24    14    15 2   
    25    14    29 1   
    26    15    16 1   
    27    15    30 1   
    28    17    18 ar  
    29    17    19 1   
    30    18    31 1   
    31    19    20 1   
    32    19    21 1   
@<TRIPOS>SUBSTRUCTURE
     1 FUN         1 TEMP              0 ****  ****    0 ROOT
