@<TRIPOS>MOLECULE
FUN
   31    32     1     0     0
SMALL
No Charge or Current Charge


@<TRIPOS>ATOM
      1 N1          -4.2890    -0.5700    -1.4920 n8         1 FUN      -1.011100
      2 S1          -3.9830     0.3160    -0.1570 sy         1 FUN       1.164600
      3 O1          -4.3740     1.6840    -0.4960 o          1 FUN      -0.551500
      4 O2          -4.6220    -0.4390     0.9160 o          1 FUN      -0.551500
      5 C1          -2.2030     0.1890    -0.0290 ca         1 FUN      -0.417500
      6 C2          -1.5570    -1.0310     0.2320 ca         1 FUN       0.252000
      7 Cl1         -2.4200    -2.5600     0.3890 cl         1 FUN      -0.247000
      8 C3          -0.1650    -1.0710     0.3380 ca         1 FUN      -0.268000
      9 C4           0.6040     0.0900     0.1870 ca         1 FUN       0.428000
     10 N2           1.9850     0.0030     0.3000 nu         1 FUN      -0.971200
     11 C5           2.8250    -1.1730     0.0040 c3         1 FUN       0.210500
     12 C6           4.2970    -0.8370     0.0880 cc         1 FUN       0.125300
     13 C7           5.2320    -1.1290     1.0430 cd         1 FUN      -0.179000
     14 C8           6.4500    -0.5630     0.6150 cd         1 FUN      -0.198000
     15 C9           6.2100     0.0540    -0.5830 cc         1 FUN       0.125900
     16 O3           4.8840    -0.1050    -0.9230 os         1 FUN      -0.220000
     17 C10         -0.0250     1.3250    -0.0660 ca         1 FUN      -0.251600
     18 C11         -1.4320     1.3610    -0.1750 ca         1 FUN       0.059000
     19 C12          0.7480     2.6150    -0.2090 c          1 FUN       0.726600
     20 O4           0.1410     3.6650    -0.0650 o          1 FUN      -0.708000
     21 O5           1.9430     2.5740    -0.4660 o          1 FUN      -0.708000
     22 HN11        -3.5220    -1.2360    -1.4720 hn         1 FUN       0.468000
     23 HN12        -5.0860    -1.1150    -1.1720 hn         1 FUN       0.468000
     24 H3           0.3140    -2.0230     0.5380 ha         1 FUN       0.108000
     25 HN2          2.4090     0.9170     0.0670 hn         1 FUN       0.577000
     26 H51          2.6080    -1.9840     0.7120 h1         1 FUN       0.043700
     27 H52          2.6080    -1.5430    -1.0080 h1         1 FUN       0.043700
     28 H7           5.0590    -1.6900     1.9560 ha         1 FUN       0.137000
     29 H8           7.4030    -0.6020     1.1320 ha         1 FUN       0.132000
     30 H9           6.8470     0.6070    -1.2600 h4         1 FUN       0.047100
     31 H11         -1.9270     2.3120    -0.3740 ha         1 FUN       0.165000
@<TRIPOS>BOND
     1     1     2 1   
     2     1    22 1   
     3     1    23 1   
     4     2     3 2   
     5     2     4 2   
     6     2     5 1   
     7     5     6 ar  
     8     5    18 ar  
     9     6     7 1   
    10     6     8 ar  
    11     8     9 ar  
    12     8    24 1   
    13     9    10 1   
    14     9    17 ar  
    15    10    11 1   
    16    10    25 1   
    17    11    12 1   
    18    11    26 1   
    19    11    27 1   
    20    12    13 2   
    21    12    16 1   
    22    13    14 1   
    23    13    28 1   
    24    14    15 2   
    25    14    29 1   
    26    15    16 1   
    27    15    30 1   
    28    17    18 ar  
    29    17    19 1   
    30    18    31 1   
    31    19    20 1   
    32    19    21 1   
@<TRIPOS>SUBSTRUCTURE
     1 FUN         1 TEMP              0 ****  ****    0 ROOT
