@<TRIPOS>MOLECULE
FUO
   74    78     1     0     0
SMALL
No Charge or Current Charge


@<TRIPOS>ATOM
      1 C10         13.8930    65.4810    44.4820 ca         1 FUO      -0.169500
      2 C13         13.4290    68.8210    46.0710 c3         1 FUO       0.163600
      3 C17         13.0720    72.0720    49.9650 c6         1 FUO       0.101000
      4 C21         10.9680    75.2750    49.1220 c3         1 FUO      -0.122400
      5 C22         11.6620    76.2380    48.1570 cx         1 FUO      -0.127700
      6 C24         12.3890    77.4600    48.6690 cx         1 FUO      -0.125900
      7 C26         12.0120    71.2730    47.3730 c6         1 FUO       0.152800
      8 C28         14.2850    67.0840    42.2160 ca         1 FUO      -0.061000
      9 C02         16.6650    62.2890    37.0530 c          1 FUO       0.606100
     10 C04         15.2820    63.9490    38.2640 ca         1 FUO       0.348300
     11 C05         14.4450    63.2340    39.1390 ca         1 FUO      -0.138000
     12 C06         14.1350    63.7800    40.3950 ca         1 FUO      -0.068000
     13 C07         14.6670    65.0420    40.7520 cp         1 FUO      -0.072000
     14 C08         14.3710    65.6750    42.0790 cp         1 FUO      -0.073000
     15 C09         14.1690    64.8850    43.2390 ca         1 FUO      -0.061000
     16 C11         13.8100    66.8750    44.6000 ca         1 FUO       0.150100
     17 C14         13.1220    69.0480    47.5730 c3         1 FUO       0.166800
     18 C16         12.9820    70.5980    49.4880 c6         1 FUO       0.152800
     19 C19         11.9760    74.3170    49.7900 c          1 FUO       0.609100
     20 C23         11.0990    77.6170    47.8990 cx         1 FUO      -0.125900
     21 C25         12.0580    72.7710    47.7840 c6         1 FUO       0.101000
     22 C27         14.0080    67.6800    43.4590 ca         1 FUO      -0.169500
     23 C29         15.4950    65.6820    39.7900 ca         1 FUO       0.344900
     24 C32         18.6180    63.8580    36.6270 c3         1 FUO       0.150300
     25 C33         18.5610    64.3900    35.1990 ca         1 FUO      -0.116300
     26 C34         19.0620    63.6200    34.1290 ca         1 FUO      -0.103000
     27 C35         19.0110    64.1130    32.8140 ca         1 FUO      -0.108500
     28 C36         18.4610    65.3800    32.5590 ca         1 FUO      -0.108000
     29 C37         17.9640    66.1550    33.6200 ca         1 FUO      -0.108500
     30 C38         18.0160    65.6630    34.9360 ca         1 FUO      -0.103000
     31 N15         13.0940    70.4730    48.0110 n3         1 FUO      -0.729600
     32 N18         12.1540    73.0180    49.2590 n          1 FUO      -0.405800
     33 N30         15.7970    65.1560    38.5790 nb         1 FUO      -0.681000
     34 N31         17.9870    62.5410    36.7610 ns         1 FUO      -0.500900
     35 O01         16.3350    61.1650    37.3950 o          1 FUO      -0.614100
     36 O12         13.5360    67.4020    45.8450 os         1 FUO      -0.358100
     37 O20         12.5820    74.6690    50.7970 o          1 FUO      -0.615100
     38 H101        13.7460    64.8570    45.3600 ha         1 FUO       0.124500
     39 H132        14.3690    69.3250    45.8160 h1         1 FUO       0.043700
     40 H131        12.6230    69.2450    45.4590 h1         1 FUO       0.043700
     41 H172        14.1050    72.4220    49.8230 h1         1 FUO       0.055450
     42 H171        12.8670    72.0990    51.0440 h1         1 FUO       0.055450
     43 H212        10.2150    74.7110    48.5650 hc         1 FUO       0.063700
     44 H211        10.4700    75.8510    49.9110 hc         1 FUO       0.063700
     45 H221        12.1120    75.7290    47.3060 hc         1 FUO       0.079700
     46 H242        12.3680    77.6580    49.7390 hc         1 FUO       0.074450
     47 H241        13.3140    77.7440    48.1740 hc         1 FUO       0.074450
     48 H261        11.0290    70.8650    47.6510 h1         1 FUO       0.042950
     49 H262        12.0810    71.2240    46.2780 h1         1 FUO       0.042950
     50 H281        14.4200    67.7250    41.3480 ha         1 FUO       0.116000
     51 H032        16.0090    64.2100    36.2620 hc         1 FUO       0.078700
     52 H031        14.7310    62.9840    36.4450 hc         1 FUO       0.078700
     53 H051        14.0420    62.2690    38.8460 ha         1 FUO       0.132000
     54 H061        13.4790    63.2370    41.0720 ha         1 FUO       0.122000
     55 H091        14.2410    63.8020    43.1820 ha         1 FUO       0.116000
     56 H141        12.1620    68.5660    47.8050 h1         1 FUO       0.049200
     57 H142        13.8930    68.5120    48.1440 h1         1 FUO       0.049200
     58 H161        12.0260    70.1770    49.8310 h1         1 FUO       0.042950
     59 H162        13.7800    70.0240    49.9830 h1         1 FUO       0.042950
     60 H232        11.1580    78.0070    46.8860 hc         1 FUO       0.074450
     61 H231        10.2140    77.9220    48.4520 hc         1 FUO       0.074450
     62 H252        12.9310    73.2350    47.3030 h1         1 FUO       0.055450
     63 H251        11.1680    73.2550    47.3640 h1         1 FUO       0.055450
     64 H271        13.9480    68.7630    43.5140 ha         1 FUO       0.124500
     65 H291        15.9450    66.6500    40.0050 h4         1 FUO       0.019100
     66 H321        19.6700    63.7680    36.9280 h1         1 FUO       0.069200
     67 H322        18.1460    64.5660    37.3200 h1         1 FUO       0.069200
     68 H341        19.4910    62.6380    34.3170 ha         1 FUO       0.115500
     69 H351        19.3980    63.5130    31.9930 ha         1 FUO       0.114000
     70 H361        18.4210    65.7620    31.5410 ha         1 FUO       0.114000
     71 H371        17.5400    67.1370    33.4240 ha         1 FUO       0.114000
     72 H381        17.6280    66.2710    35.7500 ha         1 FUO       0.115500
     73 H311        18.5980    61.7360    36.8290 hn         1 FUO       0.315500
     74 C03         15.6340    63.4040    36.8980 c3         1 FUO      -0.204700
@<TRIPOS>BOND
     1     1    15 ar  
     2     1    16 ar  
     3     1    38 1   
     4     2    17 1   
     5     2    36 1   
     6     2    39 1   
     7     2    40 1   
     8     3    18 1   
     9     3    32 1   
    10     3    41 1   
    11     3    42 1   
    12     4     5 1   
    13     4    19 1   
    14     4    43 1   
    15     4    44 1   
    16     5     6 1   
    17     5    20 1   
    18     5    45 1   
    19     6    20 1   
    20     6    46 1   
    21     6    47 1   
    22     7    21 1   
    23     7    31 1   
    24     7    48 1   
    25     7    49 1   
    26     8    14 ar  
    27     8    22 ar  
    28     8    50 1   
    29     9    34 1   
    30     9    35 2   
    31     9    74 1   
    32    10    11 ar  
    33    10    33 ar  
    34    10    74 1   
    35    11    12 ar  
    36    11    53 1   
    37    12    13 ar  
    38    12    54 1   
    39    13    14 1   
    40    13    23 ar  
    41    14    15 ar  
    42    15    55 1   
    43    16    22 ar  
    44    16    36 1   
    45    17    31 1   
    46    17    56 1   
    47    17    57 1   
    48    18    31 1   
    49    18    58 1   
    50    18    59 1   
    51    19    32 1   
    52    19    37 2   
    53    20    60 1   
    54    20    61 1   
    55    21    32 1   
    56    21    62 1   
    57    21    63 1   
    58    22    64 1   
    59    23    33 ar  
    60    23    65 1   
    61    24    25 1   
    62    24    34 1   
    63    24    66 1   
    64    24    67 1   
    65    25    26 ar  
    66    25    30 ar  
    67    26    27 ar  
    68    26    68 1   
    69    27    28 ar  
    70    27    69 1   
    71    28    29 ar  
    72    28    70 1   
    73    29    30 ar  
    74    29    71 1   
    75    30    72 1   
    76    34    73 1   
    77    51    74 1   
    78    52    74 1   
@<TRIPOS>SUBSTRUCTURE
     1 FUO         1 TEMP              0 ****  ****    0 ROOT
