@<TRIPOS>MOLECULE
FUO
   74    78     1     0     0
SMALL
abcg2


@<TRIPOS>ATOM
      1 C10         13.8580    65.5630    44.9170 ca         1 FUO      -0.169500
      2 C13         12.9740    68.7570    46.4670 c3         1 FUO       0.163600
      3 C17         11.5990    71.8730    50.0300 c6         1 FUO       0.101000
      4 C21         11.9750    74.9220    47.7560 c3         1 FUO      -0.122400
      5 C22         13.1710    74.7070    46.8480 cx         1 FUO      -0.127700
      6 C24         14.4690    75.4030    47.1450 cx         1 FUO      -0.125900
      7 C26         10.9090    70.7250    47.7500 c6         1 FUO       0.152800
      8 C28         14.1730    67.2150    42.7160 ca         1 FUO      -0.061000
      9 C02         17.5270    63.2120    37.6160 c          1 FUO       0.606100
     10 C04         15.6360    64.2950    38.8220 ca         1 FUO       0.348300
     11 C05         14.8240    63.5080    39.6350 ca         1 FUO      -0.138000
     12 C06         14.4140    64.0000    40.8640 ca         1 FUO      -0.068000
     13 C07         14.8230    65.2710    41.2750 cp         1 FUO      -0.072000
     14 C08         14.4130    65.8470    42.5710 cp         1 FUO      -0.073000
     15 C09         14.2460    65.0330    43.7000 ca         1 FUO      -0.061000
     16 C11         13.6190    66.9350    45.0430 ca         1 FUO       0.150100
     17 C14         12.5620    68.9280    47.9190 c3         1 FUO       0.166800
     18 C16         12.3740    70.6050    49.6510 c6         1 FUO       0.152800
     19 C19         12.0540    74.0370    48.9880 c          1 FUO       0.609100
     20 C23         13.6370    75.8240    45.9590 cx         1 FUO      -0.125900
     21 C25         10.8590    72.2530    47.7150 c6         1 FUO       0.101000
     22 C27         13.7810    67.7630    43.9330 ca         1 FUO      -0.169500
     23 C29         15.6500    65.9740    40.3910 ca         1 FUO       0.344900
     24 C32         18.5200    65.3570    36.7640 c3         1 FUO       0.150300
     25 C33         18.1640    65.4490    35.2940 ca         1 FUO      -0.116300
     26 C34         18.3780    64.3900    34.4160 ca         1 FUO      -0.103000
     27 C35         18.0660    64.5170    33.0650 ca         1 FUO      -0.108500
     28 C36         17.5360    65.7070    32.5770 ca         1 FUO      -0.108000
     29 C37         17.3160    66.7690    33.4500 ca         1 FUO      -0.108500
     30 C38         17.6260    66.6380    34.7990 ca         1 FUO      -0.103000
     31 N15         12.2260    70.3100    48.2190 n3         1 FUO      -0.729600
     32 N18         11.5290    72.7940    48.9040 n          1 FUO      -0.405800
     33 N30         16.0430    65.5110    39.2060 nb         1 FUO      -0.681000
     34 N31         18.5700    64.0040    37.3000 ns         1 FUO      -0.500900
     35 O01         17.6900    62.0620    38.0270 o          1 FUO      -0.614100
     36 O12         13.2350    67.3640    46.2730 os         1 FUO      -0.358100
     37 O20         12.6100    74.4510    50.0130 o          1 FUO      -0.615100
     38 H101        13.7410    64.9280    45.7860 ha         1 FUO       0.124500
     39 H132        13.8740    69.3420    46.2590 h1         1 FUO       0.043700
     40 H131        12.1850    69.0800    45.7830 h1         1 FUO       0.043700
     41 H172        12.0760    72.3790    50.8620 h1         1 FUO       0.055450
     42 H171        10.5800    71.6170    50.3310 h1         1 FUO       0.055450
     43 H212        11.0470    74.7610    47.2050 hc         1 FUO       0.063700
     44 H211        11.9750    75.9510    48.1140 hc         1 FUO       0.063700
     45 H221        13.2560    73.7070    46.4360 hc         1 FUO       0.079700
     46 H242        14.4950    76.0650    48.0000 hc         1 FUO       0.074450
     47 H241        15.3910    74.8680    46.9590 hc         1 FUO       0.074450
     48 H261        10.1050    70.3140    48.3790 h1         1 FUO       0.042950
     49 H262        10.7390    70.3570    46.7400 h1         1 FUO       0.042950
     50 H281        14.2710    67.8720    41.8620 ha         1 FUO       0.116000
     51 H032        16.0910    64.6010    36.7560 hc         1 FUO       0.078700
     52 H031        15.4860    62.9840    37.1360 hc         1 FUO       0.078700
     53 H051        14.5080    62.5290    39.3000 ha         1 FUO       0.132000
     54 H061        13.7630    63.4070    41.4920 ha         1 FUO       0.122000
     55 H091        14.4420    63.9700    43.6310 ha         1 FUO       0.116000
     56 H141        11.7320    68.2410    48.1500 h1         1 FUO       0.049200
     57 H142        13.4040    68.6370    48.5500 h1         1 FUO       0.049200
     58 H161        11.9950    69.7790    50.2710 h1         1 FUO       0.042950
     59 H162        13.4380    70.7230    49.8700 h1         1 FUO       0.042950
     60 H232        13.9920    75.5740    44.9680 hc         1 FUO       0.074450
     61 H231        13.1090    76.7670    46.0250 hc         1 FUO       0.074450
     62 H252        11.3750    72.5960    46.8230 h1         1 FUO       0.055450
     63 H251         9.8200    72.5930    47.6680 h1         1 FUO       0.055450
     64 H271        13.5960    68.8250    43.9990 ha         1 FUO       0.124500
     65 H291        16.0220    66.9550    40.6640 h4         1 FUO       0.019100
     66 H321        19.5110    65.7870    36.9250 h1         1 FUO       0.069200
     67 H322        17.8240    65.9540    37.3510 h1         1 FUO       0.069200
     68 H341        18.7830    63.4570    34.7880 ha         1 FUO       0.115500
     69 H351        18.2350    63.6840    32.3940 ha         1 FUO       0.114000
     70 H361        17.2910    65.8050    31.5270 ha         1 FUO       0.114000
     71 H371        16.8940    67.6970    33.0830 ha         1 FUO       0.114000
     72 H381        17.4430    67.4630    35.4780 ha         1 FUO       0.115500
     73 H311        19.4780    63.5710    37.3920 hn         1 FUO       0.315500
     74 C03         16.1240    63.7940    37.4840 c3         1 FUO      -0.204700
@<TRIPOS>BOND
     1     1    15 ar  
     2     1    16 ar  
     3     1    38 1   
     4     2    17 1   
     5     2    36 1   
     6     2    39 1   
     7     2    40 1   
     8     3    18 1   
     9     3    32 1   
    10     3    41 1   
    11     3    42 1   
    12     4     5 1   
    13     4    19 1   
    14     4    43 1   
    15     4    44 1   
    16     5     6 1   
    17     5    20 1   
    18     5    45 1   
    19     6    20 1   
    20     6    46 1   
    21     6    47 1   
    22     7    21 1   
    23     7    31 1   
    24     7    48 1   
    25     7    49 1   
    26     8    14 ar  
    27     8    22 ar  
    28     8    50 1   
    29     9    34 1   
    30     9    35 2   
    31     9    74 1   
    32    10    11 ar  
    33    10    33 ar  
    34    10    74 1   
    35    11    12 ar  
    36    11    53 1   
    37    12    13 ar  
    38    12    54 1   
    39    13    14 1   
    40    13    23 ar  
    41    14    15 ar  
    42    15    55 1   
    43    16    22 ar  
    44    16    36 1   
    45    17    31 1   
    46    17    56 1   
    47    17    57 1   
    48    18    31 1   
    49    18    58 1   
    50    18    59 1   
    51    19    32 1   
    52    19    37 2   
    53    20    60 1   
    54    20    61 1   
    55    21    32 1   
    56    21    62 1   
    57    21    63 1   
    58    22    64 1   
    59    23    33 ar  
    60    23    65 1   
    61    24    25 1   
    62    24    34 1   
    63    24    66 1   
    64    24    67 1   
    65    25    26 ar  
    66    25    30 ar  
    67    26    27 ar  
    68    26    68 1   
    69    27    28 ar  
    70    27    69 1   
    71    28    29 ar  
    72    28    70 1   
    73    29    30 ar  
    74    29    71 1   
    75    30    72 1   
    76    34    73 1   
    77    51    74 1   
    78    52    74 1   
@<TRIPOS>SUBSTRUCTURE
     1 FUO         1 TEMP              0 ****  ****    0 ROOT
