@<TRIPOS>MOLECULE
FUR
   21    22     1     0     0
SMALL
abcg2


@<TRIPOS>ATOM
      1 O3          -4.9040     0.6060     0.0060 o          1 FUR      -0.371500
      2 N1          -3.7190     0.8590     0.0040 no         1 FUR       0.619500
      3 O2          -3.2400     1.9700    -0.0020 o          1 FUR      -0.371500
      4 C1          -2.8380    -0.2460     0.0080 cc         1 FUR       0.023500
      5 O1          -1.5300     0.0160     0.0040 os         1 FUR      -0.154000
      6 C2          -3.0960    -1.5800     0.0150 cd         1 FUR      -0.069000
      7 C3          -1.8230    -2.1910     0.0140 cd         1 FUR      -0.180000
      8 C4          -0.9080    -1.1750     0.0070 cc         1 FUR       0.149700
      9 C5           0.5310    -1.2170     0.0030 ce         1 FUR       0.272200
     10 N2           1.1860    -0.1260    -0.0010 n2         1 FUR      -0.347300
     11 N3           2.5190    -0.1620    -0.0060 n          1 FUR      -0.100000
     12 C8           3.2260     1.0200    -0.0120 c          1 FUR       0.692100
     13 O5           2.8200     2.1480    -0.0150 o          1 FUR      -0.454000
     14 C6           3.4130    -1.2360    -0.0060 cc         1 FUR      -0.204400
     15 C7           4.6260    -0.6940    -0.0130 cd         1 FUR      -0.069900
     16 O4           4.5270     0.6740    -0.0160 os         1 FUR      -0.281200
     17 H2          -4.0590    -2.0620     0.0180 ha         1 FUR       0.174000
     18 H3          -1.6040    -3.2460     0.0180 ha         1 FUR       0.157000
     19 H5           0.9670    -2.2140    -0.0010 h4         1 FUR       0.017800
     20 H6           3.1170    -2.2690    -0.0040 h4         1 FUR       0.240000
     21 H7           5.6120    -1.1250    -0.0170 h4         1 FUR       0.257000
@<TRIPOS>BOND
     1     1     2 1   
     2     2     3 1   
     3     2     4 1   
     4     4     5 1   
     5     4     6 2   
     6     5     8 1   
     7     6     7 1   
     8     6    17 1   
     9     7     8 2   
    10     7    18 1   
    11     8     9 1   
    12     9    10 2   
    13     9    19 1   
    14    10    11 1   
    15    11    12 1   
    16    11    14 1   
    17    12    13 2   
    18    12    16 1   
    19    14    15 2   
    20    14    20 1   
    21    15    16 1   
    22    15    21 1   
@<TRIPOS>SUBSTRUCTURE
     1 FUR         1 TEMP              0 ****  ****    0 ROOT
