@<TRIPOS>MOLECULE
FUR
   21    22     1     0     0
SMALL
No Charge or Current Charge


@<TRIPOS>ATOM
      1 O3          -5.0850     0.3650     0.8530 o          1 FUR      -0.371500
      2 N1          -3.8810     0.6310     0.9600 no         1 FUR       0.619500
      3 O2          -3.4380     1.6130     1.5740 o          1 FUR      -0.371500
      4 C1          -2.9350    -0.2640     0.3250 cc         1 FUR       0.023500
      5 O1          -1.5760    -0.0170     0.4100 os         1 FUR      -0.154000
      6 C2          -3.1330    -1.4060    -0.4070 cd         1 FUR      -0.069000
      7 C3          -1.8620    -1.8850    -0.7890 cd         1 FUR      -0.180000
      8 C4          -0.9280    -1.0230    -0.2800 cc         1 FUR       0.149700
      9 C5           0.5320    -1.0460    -0.3760 ce         1 FUR       0.272200
     10 N2           1.2780    -0.1370     0.1690 n2         1 FUR      -0.347300
     11 N3           2.6450    -0.2030     0.0390 n          1 FUR      -0.100000
     12 C8           3.4030     0.3080    -1.0260 c          1 FUR       0.692100
     13 O5           2.9940     0.8780    -2.0310 o          1 FUR      -0.454000
     14 C6           3.4490    -0.7770     0.9750 cc         1 FUR      -0.204400
     15 C7           4.7280    -0.6380     0.5020 cd         1 FUR      -0.069900
     16 O4           4.7230     0.0190    -0.7200 os         1 FUR      -0.281200
     17 H2          -4.0930    -1.8550    -0.6460 ha         1 FUR       0.174000
     18 H3          -1.6560    -2.7730    -1.3780 ha         1 FUR       0.157000
     19 H5           0.9540    -1.8810    -0.9410 h4         1 FUR       0.017800
     20 H6           3.0170    -1.2140     1.8710 h4         1 FUR       0.240000
     21 H7           5.6860    -0.9470     0.9190 h4         1 FUR       0.257000
@<TRIPOS>BOND
     1     1     2 1   
     2     2     3 1   
     3     2     4 1   
     4     4     5 1   
     5     4     6 2   
     6     5     8 1   
     7     6     7 1   
     8     6    17 1   
     9     7     8 2   
    10     7    18 1   
    11     8     9 1   
    12     9    10 2   
    13     9    19 1   
    14    10    11 1   
    15    11    12 1   
    16    11    14 1   
    17    12    13 2   
    18    12    16 1   
    19    14    15 2   
    20    14    20 1   
    21    15    16 1   
    22    15    21 1   
@<TRIPOS>SUBSTRUCTURE
     1 FUR         1 TEMP              0 ****  ****    0 ROOT
