@<TRIPOS>MOLECULE
FUS
    9     8     1     0     0
SMALL
abcg2


@<TRIPOS>ATOM
      1 NAA          1.4350    -0.0590     0.6490 n8         1 FUS      -1.021600
      2 SAE         -0.0020     0.0140    -0.1320 s6         1 FUS       1.232200
      3 OAC         -0.0590     1.3300    -0.7450 o          1 FUS      -0.545000
      4 OAD         -0.1250    -1.1600    -0.9750 o          1 FUS      -0.545000
      5 NAB         -1.1330    -0.1830     1.0620 n8         1 FUS      -1.021600
      6 H1           1.6650     0.7850     1.1600 hn         1 FUS       0.475000
      7 H2           1.5460    -0.8840     1.2280 hn         1 FUS       0.475000
      8 H3          -1.1950     0.6250     1.6730 hn         1 FUS       0.475000
      9 H4          -2.0490    -0.3870     0.6740 hn         1 FUS       0.475000
@<TRIPOS>BOND
     1     1     2 1   
     2     1     6 1   
     3     1     7 1   
     4     2     3 2   
     5     2     4 2   
     6     2     5 1   
     7     5     8 1   
     8     5     9 1   
@<TRIPOS>SUBSTRUCTURE
     1 FUS         1 TEMP              0 ****  ****    0 ROOT
