@<TRIPOS>MOLECULE
FUS
    9     8     1     0     0
SMALL
No Charge or Current Charge


@<TRIPOS>ATOM
      1 NAA          1.3120    -0.3770     0.6410 n8         1 FUS      -1.021600
      2 SAE          0.0160     0.1510    -0.1100 s6         1 FUS       1.232200
      3 OAC          0.1000     1.5940    -0.2470 o          1 FUS      -0.545000
      4 OAD         -0.3860    -0.7690    -1.1620 o          1 FUS      -0.545000
      5 NAB         -0.8270    -0.1730     1.2050 n8         1 FUS      -1.021600
      6 H1           1.8700     0.4710     0.6560 hn         1 FUS       0.475000
      7 H2           0.9010    -0.4200     1.5700 hn         1 FUS       0.475000
      8 H3          -1.5270     0.5670     1.1700 hn         1 FUS       0.475000
      9 H4          -1.3760    -0.9640     0.8720 hn         1 FUS       0.475000
@<TRIPOS>BOND
     1     1     2 1   
     2     1     6 1   
     3     1     7 1   
     4     2     3 2   
     5     2     4 2   
     6     2     5 1   
     7     5     8 1   
     8     5     9 1   
@<TRIPOS>SUBSTRUCTURE
     1 FUS         1 TEMP              0 ****  ****    0 ROOT
