@<TRIPOS>MOLECULE
FUU
   39    41     1     0     0
SMALL
No Charge or Current Charge


@<TRIPOS>ATOM
      1 CAI          7.5870     0.7830     0.1420 cc         1 FUU      -0.122000
      2 CAD          8.3510     1.5490    -0.7610 cc         1 FUU      -0.196000
      3 CAF          7.4930     1.9800    -1.7400 cd         1 FUU       0.137900
      4 OAR          6.2070     1.5330    -1.5180 os         1 FUU      -0.218000
      5 CAY          6.3110     0.8030    -0.3550 cd         1 FUU       0.084000
      6 CAZ          5.1910     0.1380     0.2640 cd         1 FUU       0.375000
      7 OAS          3.9570     0.2070    -0.2910 os         1 FUU      -0.304000
      8 NAN          5.2490    -0.5730     1.3810 nc         1 FUU      -0.329000
      9 NAM          3.9620    -1.0140     1.5930 nc         1 FUU      -0.364000
     10 CAX          3.2480    -0.5310     0.5880 cd         1 FUU       0.573900
     11 NAP          1.9130    -0.6860     0.3420 ns         1 FUU      -0.501400
     12 CAU          1.0030    -1.3800     1.0800 c          1 FUU       0.669100
     13 OAB          1.2560    -1.9860     2.1070 o          1 FUU      -0.567100
     14 NAO         -0.2530    -1.3290     0.5420 ns         1 FUU      -0.509900
     15 CAK         -1.4190    -1.9860     1.1280 c3         1 FUU       0.162300
     16 CAV         -2.6650    -1.7320     0.2930 ca         1 FUU      -0.098300
     17 CAJ         -3.4810    -0.6140     0.5540 ca         1 FUU      -0.155000
     18 CAG         -3.0100    -2.6050    -0.7550 ca         1 FUU      -0.165000
     19 CAE         -4.1570    -2.3680    -1.5290 ca         1 FUU      -0.078000
     20 CAH         -4.9700    -1.2530    -1.2620 ca         1 FUU      -0.208000
     21 CAW         -4.6310    -0.3680    -0.2150 ca         1 FUU       0.173100
     22 OAQ         -5.3890     0.7440     0.0920 os         1 FUU      -0.294100
     23 CAL         -6.5920     1.0850    -0.6390 c3         1 FUU       0.001600
     24 CAT         -7.2820     2.3800    -0.1160 c          1 FUU       0.729000
     25 OAC         -6.7910     2.9900     0.8270 o          1 FUU      -0.711500
     26 OAA         -8.3080     2.7410    -0.6800 o          1 FUU      -0.711500
     27 H1           7.9490     0.2870     1.0380 ha         1 FUU       0.159000
     28 H2           9.4150     1.7520    -0.6870 ha         1 FUU       0.145000
     29 H3           7.6670     2.5900    -2.6170 h4         1 FUU       0.055100
     30 H4           1.5490    -0.2380    -0.4830 hn         1 FUU       0.336500
     31 H5          -0.3850    -0.8070    -0.3140 hn         1 FUU       0.313500
     32 H6          -1.2270    -3.0650     1.1920 h1         1 FUU       0.064200
     33 H7          -1.5690    -1.6070     2.1480 h1         1 FUU       0.064200
     34 H8          -3.2230     0.0720     1.3580 ha         1 FUU       0.124000
     35 H9          -2.3860    -3.4710    -0.9720 ha         1 FUU       0.108000
     36 H10         -4.4170    -3.0490    -2.3370 ha         1 FUU       0.098000
     37 H11         -5.8520    -1.0900    -1.8740 ha         1 FUU       0.124000
     38 H12         -6.3570     1.2410    -1.7000 h1         1 FUU       0.017700
     39 H13         -7.3220     0.2690    -0.5660 h1         1 FUU       0.017700
@<TRIPOS>BOND
     1     1     2 1   
     2     1     5 2   
     3     1    27 1   
     4     2     3 2   
     5     2    28 1   
     6     3     4 1   
     7     3    29 1   
     8     4     5 1   
     9     5     6 1   
    10     6     7 1   
    11     6     8 2   
    12     7    10 1   
    13     8     9 1   
    14     9    10 2   
    15    10    11 1   
    16    11    12 1   
    17    11    30 1   
    18    12    13 2   
    19    12    14 1   
    20    14    15 1   
    21    14    31 1   
    22    15    16 1   
    23    15    32 1   
    24    15    33 1   
    25    16    17 ar  
    26    16    18 ar  
    27    17    21 ar  
    28    17    34 1   
    29    18    19 ar  
    30    18    35 1   
    31    19    20 ar  
    32    19    36 1   
    33    20    21 ar  
    34    20    37 1   
    35    21    22 1   
    36    22    23 1   
    37    23    24 1   
    38    23    38 1   
    39    23    39 1   
    40    24    25 1   
    41    24    26 1   
@<TRIPOS>SUBSTRUCTURE
     1 FUU         1 TEMP              0 ****  ****    0 ROOT
