@<TRIPOS>MOLECULE
FUU
   39    41     1     0     0
SMALL
abcg2


@<TRIPOS>ATOM
      1 CAI          7.6460    -0.3320    -0.7730 cc         1 FUU      -0.122000
      2 CAD          8.4530     0.7970    -1.0810 cc         1 FUU      -0.196000
      3 CAF          7.6540     1.8830    -0.9410 cd         1 FUU       0.137900
      4 OAR          6.4150     1.5100    -0.5700 os         1 FUU      -0.218000
      5 CAY          6.4180     0.1660    -0.4700 cd         1 FUU       0.084000
      6 CAZ          5.1980    -0.4790    -0.0800 cd         1 FUU       0.375000
      7 OAS          4.0960     0.2670     0.1430 os         1 FUU      -0.304000
      8 NAN          4.9720    -1.7290     0.1040 nc         1 FUU      -0.329000
      9 NAM          3.6530    -1.8510     0.4730 nc         1 FUU      -0.364000
     10 CAX          3.1790    -0.6520     0.4820 cd         1 FUU       0.573900
     11 NAP          1.9460    -0.1680     0.7680 ns         1 FUU      -0.501400
     12 CAU          0.8430    -0.9580     1.0810 c          1 FUU       0.669100
     13 OAB          0.9050    -2.1710     1.1060 o          1 FUU      -0.567100
     14 NAO         -0.2590    -0.2320     1.3480 ns         1 FUU      -0.509900
     15 CAK         -1.5270    -0.8270     1.7000 c3         1 FUU       0.162300
     16 CAV         -2.5270    -0.8220     0.5690 ca         1 FUU      -0.098300
     17 CAJ         -3.7940    -0.3030     0.7760 ca         1 FUU      -0.155000
     18 CAG         -2.1990    -1.3550    -0.6790 ca         1 FUU      -0.165000
     19 CAE         -3.1450    -1.3560    -1.6880 ca         1 FUU      -0.078000
     20 CAH         -4.4220    -0.8390    -1.4860 ca         1 FUU      -0.208000
     21 CAW         -4.7540    -0.3090    -0.2420 ca         1 FUU       0.173100
     22 OAQ         -5.9490     0.2160     0.0740 os         1 FUU      -0.294100
     23 CAL         -6.9640     0.2440    -0.9100 c3         1 FUU       0.001600
     24 CAT         -8.2460     0.8830    -0.3520 c          1 FUU       0.729000
     25 OAC         -8.2390     1.2970     0.8160 o          1 FUU      -0.711500
     26 OAA         -9.1830     0.9140    -1.1740 o          1 FUU      -0.711500
     27 H1           7.9350    -1.3700    -0.7770 ha         1 FUU       0.159000
     28 H2           9.4920     0.7980    -1.3680 ha         1 FUU       0.145000
     29 H3           7.8210     2.9400    -1.0660 h4         1 FUU       0.055100
     30 H4           1.8480     0.8370     0.7530 hn         1 FUU       0.336500
     31 H5          -0.2360     0.7710     1.2580 hn         1 FUU       0.313500
     32 H6          -1.3450    -1.8490     2.0320 h1         1 FUU       0.064200
     33 H7          -1.9340    -0.2870     2.5560 h1         1 FUU       0.064200
     34 H8          -4.0580     0.1160     1.7410 ha         1 FUU       0.124000
     35 H9          -1.2170    -1.7720    -0.8610 ha         1 FUU       0.108000
     36 H10         -2.8960    -1.7700    -2.6560 ha         1 FUU       0.098000
     37 H11         -5.1310    -0.8610    -2.3010 ha         1 FUU       0.124000
     38 H12         -6.6360     0.8170    -1.7870 h1         1 FUU       0.017700
     39 H13         -7.1910    -0.7700    -1.2610 h1         1 FUU       0.017700
@<TRIPOS>BOND
     1     1     2 1   
     2     1     5 2   
     3     1    27 1   
     4     2     3 2   
     5     2    28 1   
     6     3     4 1   
     7     3    29 1   
     8     4     5 1   
     9     5     6 1   
    10     6     7 1   
    11     6     8 2   
    12     7    10 1   
    13     8     9 1   
    14     9    10 2   
    15    10    11 1   
    16    11    12 1   
    17    11    30 1   
    18    12    13 2   
    19    12    14 1   
    20    14    15 1   
    21    14    31 1   
    22    15    16 1   
    23    15    32 1   
    24    15    33 1   
    25    16    17 ar  
    26    16    18 ar  
    27    17    21 ar  
    28    17    34 1   
    29    18    19 ar  
    30    18    35 1   
    31    19    20 ar  
    32    19    36 1   
    33    20    21 ar  
    34    20    37 1   
    35    21    22 1   
    36    22    23 1   
    37    23    24 1   
    38    23    38 1   
    39    23    39 1   
    40    24    25 1   
    41    24    26 1   
@<TRIPOS>SUBSTRUCTURE
     1 FUU         1 TEMP              0 ****  ****    0 ROOT
