@<TRIPOS>MOLECULE
FUV
   61    65     1     0     0
SMALL
No Charge or Current Charge


@<TRIPOS>ATOM
      1 C10         -5.2890    -1.6030     2.0020 c          1 FUV       0.730000
      2 C15         -0.0380    -0.1550    -1.7910 c6         1 FUV       0.202300
      3 C14         -1.5550    -0.2930    -1.4470 c6         1 FUV       0.154300
      4 C02         -5.9670     0.6040    -1.2000 c6         1 FUV       0.122300
      5 C03         -4.4970     0.7060    -1.6920 c6         1 FUV       0.148300
      6 C05         -3.5530     0.8250    -0.4300 c6         1 FUV       0.417500
      7 C07         -5.1210    -0.4310     0.9710 c6         1 FUV      -0.007700
      8 C08         -6.1310    -0.5850    -0.2050 c6         1 FUV       0.135300
      9 C17          0.2350     1.3770     0.1510 c6         1 FUV       0.202300
     10 C18         -1.2840     1.2090     0.4710 c6         1 FUV       0.154300
     11 C19          2.0970    -0.2420    -0.4370 ce         1 FUV       0.698800
     12 C21          3.7660    -1.9450    -0.7240 c6         1 FUV       0.121500
     13 C22          4.2610    -2.1740     0.7380 c6         1 FUV       0.165300
     14 C24          4.0170     0.2100     1.1600 ca         1 FUV       0.145100
     15 C25          3.1250     0.6710     0.1660 ca         1 FUV      -0.204900
     16 C26          3.2620     1.9980    -0.3010 ca         1 FUV      -0.061000
     17 C27          4.2250     2.8570     0.2550 ca         1 FUV       0.094000
     18 C29          5.0720     2.4020     1.2770 ca         1 FUV      -0.085000
     19 C30          4.9650     1.0760     1.7290 ca         1 FUV      -0.128000
     20 C31          5.7870    -2.4530     0.7390 c6         1 FUV      -0.070200
     21 C32          6.1790    -3.4770    -0.3220 c2         1 FUV      -0.228200
     22 C33          5.3710    -3.8330    -1.3360 c2         1 FUV      -0.215200
     23 C34          3.9780    -3.2430    -1.5460 c6         1 FUV      -0.035200
     24 N13         -2.0970     0.9190    -0.7500 n3         1 FUV      -0.732600
     25 N16          0.7850     0.2010    -0.5930 nh         1 FUV      -0.728600
     26 N20          2.3790    -1.4510    -0.8060 n2         1 FUV      -0.675900
     27 O04         -4.3920     1.8140    -2.6180 oh         1 FUV      -0.716000
     28 O06         -3.7650    -0.3140     0.4340 os         1 FUV      -0.447000
     29 O09         -7.4970    -0.6610     0.2540 oh         1 FUV      -0.791000
     30 O11         -4.4560    -2.5020     1.9610 o          1 FUV      -0.701500
     31 O12         -5.7730    -1.2810     3.0810 o          1 FUV      -0.701500
     32 O23          3.9390    -1.0780     1.6290 os         1 FUV      -0.347100
     33 Cl1          4.3680     4.5090    -0.3320 cl         1 FUV      -0.214000
     34 H1           0.2980    -1.0980    -2.2450 h1         1 FUV       0.056700
     35 H2           0.0780     0.6230    -2.5590 h1         1 FUV       0.056700
     36 H3          -2.0950    -0.4810    -2.3860 h1         1 FUV       0.054200
     37 H4          -1.6820    -1.1870    -0.8190 h1         1 FUV       0.054200
     38 H5          -6.2090     1.5320    -0.6590 h1         1 FUV       0.035700
     39 H6          -4.2580    -0.2320    -2.2140 h1         1 FUV       0.048700
     40 H7          -3.8350     1.7390     0.1150 h2         1 FUV       0.041700
     41 H8          -5.3450     0.5030     1.5080 h1         1 FUV       0.024700
     42 H9          -5.8770    -1.5140    -0.7400 h1         1 FUV       0.043700
     43 H10          0.3650     2.2920    -0.4450 h1         1 FUV       0.056700
     44 H11          0.7730     1.5240     1.0990 h1         1 FUV       0.056700
     45 H12         -1.3890     0.3960     1.2050 h1         1 FUV       0.054200
     46 H13         -1.6400     2.1280     0.9600 h1         1 FUV       0.054200
     47 H15          4.4160    -1.1820    -1.1810 h1         1 FUV       0.039700
     48 H16          3.7560    -3.0690     1.1290 h1         1 FUV       0.104700
     49 H17          2.6250     2.3660    -1.1020 ha         1 FUV       0.141000
     50 H18          5.8120     3.0700     1.7100 ha         1 FUV       0.124000
     51 H19          5.6250     0.7140     2.5130 ha         1 FUV       0.130000
     52 H20          6.3420    -1.5210     0.5630 hc         1 FUV       0.054700
     53 H21          6.0870    -2.8160     1.7310 hc         1 FUV       0.054700
     54 H22          7.1700    -3.9260    -0.2180 ha         1 FUV       0.167000
     55 H23          5.6950    -4.5750    -2.0700 ha         1 FUV       0.169000
     56 H24          3.2240    -3.9920    -1.2700 hc         1 FUV       0.063200
     57 H25          3.8260    -3.0260    -2.6120 hc         1 FUV       0.063200
     58 H31         -5.2490     1.7950    -3.1090 ho         1 FUV       0.504000
     59 H32         -7.6260     0.0480     0.9320 ho         1 FUV       0.578000
     60 O01         -6.8700     0.4490    -2.3090 oh         1 FUV      -0.687000
     61 H30         -7.6540    -0.0140    -1.9280 ho         1 FUV       0.457000
@<TRIPOS>BOND
     1     1     7 1   
     2     1    30 1   
     3     1    31 1   
     4     2     3 1   
     5     2    25 1   
     6     2    34 1   
     7     2    35 1   
     8     3    24 1   
     9     3    36 1   
    10     3    37 1   
    11     4     5 1   
    12     4     8 1   
    13     4    38 1   
    14     4    60 1   
    15     5     6 1   
    16     5    27 1   
    17     5    39 1   
    18     6    24 1   
    19     6    28 1   
    20     6    40 1   
    21     7     8 1   
    22     7    28 1   
    23     7    41 1   
    24     8    29 1   
    25     8    42 1   
    26     9    10 1   
    27     9    25 1   
    28     9    43 1   
    29     9    44 1   
    30    10    24 1   
    31    10    45 1   
    32    10    46 1   
    33    11    15 1   
    34    11    25 1   
    35    11    26 2   
    36    12    13 1   
    37    12    23 1   
    38    12    26 1   
    39    12    47 1   
    40    13    20 1   
    41    13    32 1   
    42    13    48 1   
    43    14    15 ar  
    44    14    19 ar  
    45    14    32 1   
    46    15    16 ar  
    47    16    17 ar  
    48    16    49 1   
    49    17    18 ar  
    50    17    33 1   
    51    18    19 ar  
    52    18    50 1   
    53    19    51 1   
    54    20    21 1   
    55    20    52 1   
    56    20    53 1   
    57    21    22 2   
    58    21    54 1   
    59    22    23 1   
    60    22    55 1   
    61    23    56 1   
    62    23    57 1   
    63    27    58 1   
    64    29    59 1   
    65    60    61 1   
@<TRIPOS>SUBSTRUCTURE
     1 FUV         1 TEMP              0 ****  ****    0 ROOT
