@<TRIPOS>MOLECULE
FUV
   61    65     1     0     0
SMALL
bcc


@<TRIPOS>ATOM
      1 C10         -4.1690    -1.6190     2.2920 c          1 FUV       0.940600
      2 C15          0.0620     0.4750    -2.3990 c6         1 FUV       0.202300
      3 C14         -1.1740    -0.1120    -1.7350 c6         1 FUV       0.154300
      4 C02         -5.5150     0.1000    -0.9070 c6         1 FUV       0.099100
      5 C03         -4.1500     0.2980    -1.5560 c6         1 FUV       0.125100
      6 C05         -3.1380     0.6420    -0.4600 c6         1 FUV       0.394300
      7 C07         -4.3200    -0.5720     1.1720 c6         1 FUV      -0.030900
      8 C08         -5.4360    -0.9530     0.1870 c6         1 FUV       0.112100
      9 C17          0.3000     2.0590    -0.6190 c6         1 FUV       0.202300
     10 C18         -0.9460     1.4880     0.0400 c6         1 FUV       0.154300
     11 C19          1.9800     0.2750    -0.9230 ce         1 FUV       0.698800
     12 C21          3.2770    -1.6680    -0.8420 c6         1 FUV       0.121500
     13 C22          3.2190    -2.0210     0.6440 c6         1 FUV       0.142100
     14 C24          3.4040     0.3040     1.1130 ca         1 FUV       0.145100
     15 C25          2.9630     0.9570    -0.0400 ca         1 FUV      -0.204900
     16 C26          3.4950     2.1990    -0.3730 ca         1 FUV      -0.079000
     17 C27          4.4390     2.7830     0.4520 ca         1 FUV       0.002400
     18 C29          4.8610     2.1530     1.6130 ca         1 FUV      -0.103000
     19 C30          4.3450     0.9090     1.9370 ca         1 FUV      -0.146000
     20 C31          4.5320    -2.6420     1.0950 c6         1 FUV      -0.070200
     21 C32          4.9770    -3.7120     0.1430 c2         1 FUV      -0.178200
     22 C33          4.4660    -3.8630    -1.0760 c2         1 FUV      -0.165200
     23 C34          3.4120    -2.9610    -1.6410 c6         1 FUV      -0.035200
     24 N13         -1.8370     0.9230    -0.9580 n3         1 FUV      -0.732600
     25 N16          0.9720     1.0530    -1.4280 nh         1 FUV      -0.728600
     26 N20          2.1050    -0.9480    -1.2720 n2         1 FUV      -0.675900
     27 O04         -4.1600     1.3440    -2.4920 oh         1 FUV      -0.593800
     28 O06         -3.1050    -0.4130     0.4870 os         1 FUV      -0.400600
     29 O09         -6.6800    -1.0430     0.8290 oh         1 FUV      -0.668800
     30 O11         -3.0390    -1.9640     2.6400 o          1 FUV      -0.806800
     31 O12         -5.2620    -2.0240     2.7760 o          1 FUV      -0.806800
     32 O23          2.8750    -0.8930     1.4610 os         1 FUV      -0.323900
     33 CL1          5.1010     4.3280     0.0290 cl         1 FUV      -0.122400
     34 H1           0.5800    -0.2890    -2.9740 h1         1 FUV       0.056700
     35 H2          -0.2420     1.2720    -3.0850 h1         1 FUV       0.056700
     36 H3          -1.8350    -0.4770    -2.5210 h1         1 FUV       0.054200
     37 H4          -0.8770    -0.9750    -1.1240 h1         1 FUV       0.054200
     38 H5          -5.8130     1.0540    -0.4440 h1         1 FUV       0.035700
     39 H6          -3.8610    -0.6550    -2.0260 h1         1 FUV       0.048700
     40 H7          -3.4900     1.5590     0.0420 h2         1 FUV       0.041700
     41 H8          -4.6140     0.3800     1.6530 h1         1 FUV       0.024700
     42 H9          -5.1580    -1.9150    -0.2810 h1         1 FUV       0.043700
     43 H10          0.0200     2.8930    -1.2680 h1         1 FUV       0.056700
     44 H11          0.9640     2.4520     0.1470 h1         1 FUV       0.056700
     45 H12         -0.6460     0.7500     0.8000 h1         1 FUV       0.054200
     46 H13         -1.4640     2.2960     0.5620 h1         1 FUV       0.054200
     47 H15          4.1970    -1.0850    -1.0120 h1         1 FUV       0.039700
     48 H16          2.4040    -2.7320     0.8040 h1         1 FUV       0.104700
     49 H17          3.1680     2.7010    -1.2750 ha         1 FUV       0.159000
     50 H18          5.5950     2.6200     2.2560 ha         1 FUV       0.142000
     51 H19          4.6720     0.4060     2.8370 ha         1 FUV       0.148000
     52 H20          5.3090    -1.8710     1.1720 hc         1 FUV       0.054700
     53 H21          4.4220    -3.0580     2.1000 hc         1 FUV       0.054700
     54 H22          5.7510    -4.3880     0.4900 ha         1 FUV       0.117000
     55 H23          4.8230    -4.6700    -1.7070 ha         1 FUV       0.119000
     56 H24          2.4460    -3.4780    -1.6640 hc         1 FUV       0.063200
     57 H25          3.6450    -2.7180    -2.6810 hc         1 FUV       0.063200
     58 H31         -4.9060     1.2050    -3.0850 ho         1 FUV       0.405000
     59 H32         -6.4540    -1.4810     1.6830 ho         1 FUV       0.479000
     60 O01         -6.4200    -0.2550    -1.9310 oh         1 FUV      -0.624800
     61 H30         -7.3120    -0.2220    -1.5720 ho         1 FUV       0.418000
@<TRIPOS>BOND
     1     1     7 1   
     2     1    30 1   
     3     1    31 1   
     4     2     3 1   
     5     2    25 1   
     6     2    34 1   
     7     2    35 1   
     8     3    24 1   
     9     3    36 1   
    10     3    37 1   
    11     4     5 1   
    12     4     8 1   
    13     4    38 1   
    14     4    60 1   
    15     5     6 1   
    16     5    27 1   
    17     5    39 1   
    18     6    24 1   
    19     6    28 1   
    20     6    40 1   
    21     7     8 1   
    22     7    28 1   
    23     7    41 1   
    24     8    29 1   
    25     8    42 1   
    26     9    10 1   
    27     9    25 1   
    28     9    43 1   
    29     9    44 1   
    30    10    24 1   
    31    10    45 1   
    32    10    46 1   
    33    11    15 1   
    34    11    25 1   
    35    11    26 2   
    36    12    13 1   
    37    12    23 1   
    38    12    26 1   
    39    12    47 1   
    40    13    20 1   
    41    13    32 1   
    42    13    48 1   
    43    14    15 ar  
    44    14    19 ar  
    45    14    32 1   
    46    15    16 ar  
    47    16    17 ar  
    48    16    49 1   
    49    17    18 ar  
    50    17    33 1   
    51    18    19 ar  
    52    18    50 1   
    53    19    51 1   
    54    20    21 1   
    55    20    52 1   
    56    20    53 1   
    57    21    22 2   
    58    21    54 1   
    59    22    23 1   
    60    22    55 1   
    61    23    56 1   
    62    23    57 1   
    63    27    58 1   
    64    29    59 1   
    65    60    61 1   
@<TRIPOS>SUBSTRUCTURE
     1 FUV         1 TEMP              0 ****  ****    0 ROOT
