@<TRIPOS>MOLECULE
FUX
   15    15     1     0     0
SMALL
No Charge or Current Charge


@<TRIPOS>ATOM
      1 C1           0.9440    -2.0630    -4.1620 c          1 FUX       0.504400
      2 C2           0.5080    -1.7690    -2.7770 cc         1 FUX       0.011500
      3 O3           0.0180    -2.7300    -1.9170 os         1 FUX      -0.207000
      4 C4          -0.2800    -2.0820    -0.7360 cc         1 FUX       0.157300
      5 C5           0.0190    -0.7500    -0.8550 cd         1 FUX      -0.192000
      6 C6           0.5220    -0.5470    -2.1570 cd         1 FUX      -0.095000
      7 C7          -0.8390    -2.8720     0.4230 c3         1 FUX       0.132300
      8 O8          -2.2340    -2.5970     0.6340 oh         1 FUX      -0.644000
      9 OXT          1.3840    -1.2280    -4.9480 o          1 FUX      -0.509100
     10 H1           0.8470    -3.1300    -4.4630 h4         1 FUX       0.010200
     11 H5          -0.1110     0.0030    -0.0840 ha         1 FUX       0.146000
     12 H6           0.8560     0.3920    -2.5900 ha         1 FUX       0.156000
     13 H71         -0.6880    -3.9430     0.2260 h1         1 FUX       0.040700
     14 H72         -0.2620    -2.6220     1.3240 h1         1 FUX       0.040700
     15 HO8         -2.5270    -3.1460     1.3960 ho         1 FUX       0.450000
@<TRIPOS>BOND
     1     1     2 1   
     2     1     9 2   
     3     1    10 1   
     4     2     3 1   
     5     2     6 2   
     6     3     4 1   
     7     4     5 2   
     8     4     7 1   
     9     5     6 1   
    10     5    11 1   
    11     6    12 1   
    12     7     8 1   
    13     7    13 1   
    14     7    14 1   
    15     8    15 1   
@<TRIPOS>SUBSTRUCTURE
     1 FUX         1 TEMP              0 ****  ****    0 ROOT
