@<TRIPOS>MOLECULE
FUX
   15    15     1     0     0
SMALL
bcc


@<TRIPOS>ATOM
      1 C1           0.6560    -2.1470    -4.0890 c          1 FUX       0.504400
      2 C2           0.4440    -1.7060    -2.7280 cc         1 FUX       0.121200
      3 O3          -0.1450    -2.5700    -1.8670 os         1 FUX      -0.295800
      4 C4          -0.2490    -1.9560    -0.6820 cc         1 FUX       0.267000
      5 C5           0.2700    -0.6970    -0.7580 cd         1 FUX      -0.275300
      6 C6           0.7230    -0.5340    -2.0870 cd         1 FUX      -0.178300
      7 C7          -0.8520    -2.7140     0.4420 c3         1 FUX       0.109100
      8 O8          -2.1670    -3.0770     0.0940 oh         1 FUX      -0.581800
      9 OXT          1.1830    -1.4580    -4.9360 o          1 FUX      -0.509100
     10 H1           0.3010    -3.1680    -4.3070 h4         1 FUX       0.010200
     11 H5           0.3130     0.0220     0.0430 ha         1 FUX       0.164000
     12 H6           1.1910     0.3350    -2.5200 ha         1 FUX       0.174000
     13 H71         -0.2330    -3.5940     0.6570 h1         1 FUX       0.040700
     14 H72         -0.8120    -2.0750     1.3310 h1         1 FUX       0.040700
     15 HO8         -2.4640    -3.7450     0.7200 ho         1 FUX       0.411000
@<TRIPOS>BOND
     1     1     2 1   
     2     1     9 2   
     3     1    10 1   
     4     2     3 1   
     5     2     6 2   
     6     3     4 1   
     7     4     5 2   
     8     4     7 1   
     9     5     6 1   
    10     5    11 1   
    11     6    12 1   
    12     7     8 1   
    13     7    13 1   
    14     7    14 1   
    15     8    15 1   
@<TRIPOS>SUBSTRUCTURE
     1 FUX         1 TEMP              0 ****  ****    0 ROOT
