@<TRIPOS>MOLECULE
FUY
   25    25     1     0     0
SMALL
No Charge or Current Charge


@<TRIPOS>ATOM
      1 C1          -0.8630    -0.1000     0.3410 c6         1 FUY       0.389500
      2 N1          -2.2130    -0.0990    -0.2280 n2         1 FUY      -0.056200
      3 C2          -0.0480     1.1500    -0.1560 c6         1 FUY       0.074300
      4 N2          -2.9910    -0.9670     0.1920 n1         1 FUY       0.249000
      5 O2          -0.6910     2.4210     0.1590 oh         1 FUY      -0.753000
      6 C3           1.3810     1.1280     0.4720 c6         1 FUY       0.176300
      7 N3          -4.1520    -0.6720    -0.1160 n2         1 FUY      -0.220400
      8 O3           2.1440     2.2350    -0.0330 oh         1 FUY      -0.610000
      9 C4           2.1070    -0.2210     0.1850 c6         1 FUY       0.144300
     10 O4           2.4040    -0.3260    -1.2270 oh         1 FUY      -0.692000
     11 C5           1.1810    -1.3800     0.6780 c6         1 FUY       0.142300
     12 O5          -0.1120    -1.3040     0.0370 os         1 FUY      -0.418000
     13 C6           1.7490    -2.7900     0.3780 c3         1 FUY      -0.099100
     14 H1          -0.9710    -0.0200     1.4330 h2         1 FUY       0.095700
     15 H2           0.0640     1.0430    -1.2470 h1         1 FUY       0.111700
     16 HO2         -1.4760     2.5280    -0.4360 ho         1 FUY       0.552000
     17 H3           1.2750     1.2280     1.5640 h1         1 FUY       0.049700
     18 HN3         -4.7550    -1.4940     0.0090 hn         1 FUY       0.524400
     19 HO3          1.5210     2.9980    -0.0080 ho         1 FUY       0.462000
     20 H4           3.0380    -0.2460     0.7720 h1         1 FUY       0.080700
     21 HO4          2.7810     0.5510    -1.4790 ho         1 FUY       0.527000
     22 H5           1.0440    -1.2970     1.7670 h1         1 FUY       0.057700
     23 H6           2.7370    -2.9220     0.8330 hc         1 FUY       0.069700
     24 H6A          1.0920    -3.5700     0.7790 hc         1 FUY       0.069700
     25 H6B          1.8510    -2.9610    -0.7010 hc         1 FUY       0.069700
@<TRIPOS>BOND
     1     1     2 1   
     2     1     3 1   
     3     1    12 1   
     4     1    14 1   
     5     2     4 2   
     6     3     5 1   
     7     3     6 1   
     8     3    15 1   
     9     4     7 2   
    10     5    16 1   
    11     6     8 1   
    12     6     9 1   
    13     6    17 1   
    14     7    18 1   
    15     8    19 1   
    16     9    10 1   
    17     9    11 1   
    18     9    20 1   
    19    10    21 1   
    20    11    12 1   
    21    11    13 1   
    22    11    22 1   
    23    13    23 1   
    24    13    24 1   
    25    13    25 1   
@<TRIPOS>SUBSTRUCTURE
     1 FUY         1 TEMP              0 ****  ****    0 ROOT
