@<TRIPOS>MOLECULE
FUY
   25    25     1     0     0
SMALL
abcg2


@<TRIPOS>ATOM
      1 C1          -0.7780    -0.5590     0.3790 c6         1 FUY       0.389500
      2 N1          -2.0500    -0.9140    -0.2920 n2         1 FUY      -0.056200
      3 C2          -0.3310     0.8130    -0.1250 c6         1 FUY       0.074300
      4 N2          -3.0360    -0.3180    -0.2100 n1         1 FUY       0.249000
      5 O2          -1.2930     1.7360     0.3040 oh         1 FUY      -0.753000
      6 C3           1.0520     1.0820     0.4820 c6         1 FUY       0.176300
      7 N3          -4.0460     0.2590    -0.3120 n2         1 FUY      -0.220400
      8 O3           1.5820     2.2880     0.0110 oh         1 FUY      -0.610000
      9 C4           2.0010    -0.0620     0.1450 c6         1 FUY       0.144300
     10 O4           2.2250    -0.0510    -1.2410 oh         1 FUY      -0.692000
     11 C5           1.3850    -1.3780     0.6290 c6         1 FUY       0.142300
     12 O5           0.0900    -1.5630     0.0420 os         1 FUY      -0.418000
     13 C6           2.2090    -2.5970     0.2830 c3         1 FUY      -0.099100
     14 H1          -1.0010    -0.5270     1.4570 h2         1 FUY       0.095700
     15 H2          -0.2560     0.7800    -1.2170 h1         1 FUY       0.111700
     16 HO2         -1.4430     2.3910    -0.3850 ho         1 FUY       0.552000
     17 H3           0.9410     1.0980     1.5760 h1         1 FUY       0.049700
     18 HN3         -4.7820     0.0020     0.3580 hn         1 FUY       0.524400
     19 HO3          1.1670     3.0130     0.4880 ho         1 FUY       0.462000
     20 H4           2.9320     0.0880     0.7080 h1         1 FUY       0.080700
     21 HO4          2.9740    -0.6210    -1.4400 ho         1 FUY       0.527000
     22 H5           1.2790    -1.3170     1.7210 h1         1 FUY       0.057700
     23 H6           3.2160    -2.4890     0.6860 hc         1 FUY       0.069700
     24 H6A          1.7730    -3.4960     0.7170 hc         1 FUY       0.069700
     25 H6B          2.2850    -2.7440    -0.7950 hc         1 FUY       0.069700
@<TRIPOS>BOND
     1     1     2 1   
     2     1     3 1   
     3     1    12 1   
     4     1    14 1   
     5     2     4 2   
     6     3     5 1   
     7     3     6 1   
     8     3    15 1   
     9     4     7 2   
    10     5    16 1   
    11     6     8 1   
    12     6     9 1   
    13     6    17 1   
    14     7    18 1   
    15     8    19 1   
    16     9    10 1   
    17     9    11 1   
    18     9    20 1   
    19    10    21 1   
    20    11    12 1   
    21    11    13 1   
    22    11    22 1   
    23    13    23 1   
    24    13    24 1   
    25    13    25 1   
@<TRIPOS>SUBSTRUCTURE
     1 FUY         1 TEMP              0 ****  ****    0 ROOT
