@<TRIPOS>MOLECULE
FUZ
   26    27     1     0     0
SMALL
bcc


@<TRIPOS>ATOM
      1 OAA         -0.5780    -2.2180     0.0570 o          1 FUZ      -0.829300
      2 OAB         -2.7360    -2.6460     0.3350 o          1 FUZ      -0.829300
      3 CAC         -2.8120     2.3240    -0.0120 ca         1 FUZ      -0.098000
      4 CAD         -3.7970     1.3610     0.1620 ca         1 FUZ      -0.233000
      5 CAE          4.6170    -0.4200    -0.6070 cc         1 FUZ      -0.283300
      6 CAF          4.1710    -0.7150     0.6350 cd         1 FUZ       0.228600
      7 CAG          3.5930     0.3720    -1.2120 cc         1 FUZ      -0.275300
      8 CAH         -1.4820     1.9620    -0.1300 ca         1 FUZ      -0.274000
      9 CAI         -3.4170     0.0280     0.2130 ca         1 FUZ      -0.060000
     10 CAJ          1.2990     1.1940    -0.3080 c3         1 FUZ       0.223500
     11 OAL          2.9570    -0.1620     0.8400 os         1 FUZ      -0.305800
     12 CAM         -1.7810    -1.8670     0.1700 c          1 FUZ       0.932200
     13 CAN          2.6100     0.4970    -0.2890 cd         1 FUZ       0.249000
     14 CAO         -1.0880     0.6110    -0.0740 ca         1 FUZ       0.234600
     15 CAP         -2.0920    -0.3820     0.1000 ca         1 FUZ      -0.220600
     16 HAC         -3.0770     3.3740    -0.0580 ha         1 FUZ       0.092000
     17 HAD         -4.8390     1.6400     0.2540 ha         1 FUZ       0.103000
     18 HAG          3.5870     0.7880    -2.2070 ha         1 FUZ       0.151000
     19 HAH         -0.7410     2.7380    -0.2690 ha         1 FUZ       0.100000
     20 HAI         -4.1720    -0.7360     0.3460 ha         1 FUZ       0.141000
     21 HAJ          1.2480     1.7620    -1.2450 h1         1 FUZ       0.031200
     22 HAJA         1.2650     1.9380     0.4990 h1         1 FUZ       0.031200
     23 HAE          5.5540    -0.7280    -1.0420 ha         1 FUZ       0.146000
     24 NAK          0.2160     0.2570    -0.1860 nu         1 FUZ      -0.811600
     25 HAF          4.5880    -1.2840     1.4500 h4         1 FUZ       0.044100
     26 HNAK         0.3670    -0.7500    -0.1310 hn         1 FUZ       0.513800
@<TRIPOS>BOND
     1     1    12 1   
     2     2    12 1   
     3     3     4 ar  
     4     3     8 ar  
     5     3    16 1   
     6     4     9 ar  
     7     4    17 1   
     8     5     6 2   
     9     5     7 1   
    10     5    23 1   
    11     6    11 1   
    12     6    25 1   
    13     7    13 2   
    14     7    18 1   
    15     8    14 ar  
    16     8    19 1   
    17     9    15 ar  
    18     9    20 1   
    19    10    13 1   
    20    10    21 1   
    21    10    22 1   
    22    10    24 1   
    23    11    13 1   
    24    12    15 1   
    25    14    15 ar  
    26    14    24 1   
    27    24    26 1   
@<TRIPOS>SUBSTRUCTURE
     1 FUZ         1 TEMP              0 ****  ****    0 ROOT
