@<TRIPOS>MOLECULE
FUZ
   26    27     1     0     0
SMALL
No Charge or Current Charge


@<TRIPOS>ATOM
      1 OAA         -0.5450    -2.1120     0.5270 o          1 FUZ      -0.724000
      2 OAB         -2.5950    -2.6550     0.2130 o          1 FUZ      -0.724000
      3 CAC         -2.9010     2.3360    -0.2290 ca         1 FUZ      -0.080000
      4 CAD         -3.8480     1.3530     0.0790 ca         1 FUZ      -0.215000
      5 CAE          4.5920    -0.4480    -0.7570 cc         1 FUZ      -0.200000
      6 CAF          4.2680    -0.8510     0.5090 cd         1 FUZ       0.118900
      7 CAG          3.5530     0.4000    -1.1830 cc         1 FUZ      -0.192000
      8 CAH         -1.5520     1.9790    -0.3580 ca         1 FUZ      -0.256000
      9 CAI         -3.4500     0.0180     0.2510 ca         1 FUZ      -0.042000
     10 CAJ          1.3520     1.2230    -0.0420 c3         1 FUZ       0.223500
     11 OAL          3.0740    -0.3030     0.9210 os         1 FUZ      -0.217000
     12 CAM         -1.7110    -1.8150     0.2990 c          1 FUZ       0.721600
     13 CAN          2.6590     0.4640    -0.1470 cd         1 FUZ       0.139300
     14 CAO         -1.1380     0.6450    -0.1790 ca         1 FUZ       0.373000
     15 CAP         -2.0910    -0.3580     0.1230 ca         1 FUZ      -0.220600
     16 HAC         -3.2100     3.3700    -0.3670 ha         1 FUZ       0.074000
     17 HAD         -4.8960     1.6230     0.1810 ha         1 FUZ       0.085000
     18 HAG          3.4820     0.8990    -2.1440 ha         1 FUZ       0.133000
     19 HAH         -0.8310     2.7530    -0.6030 ha         1 FUZ       0.082000
     20 HAI         -4.2080    -0.7270     0.4880 ha         1 FUZ       0.123000
     21 HAJ          1.3660     2.0570    -0.7570 h1         1 FUZ       0.031200
     22 HAJA         1.2680     1.6450     0.9690 h1         1 FUZ       0.031200
     23 HAE          5.4720    -0.7240    -1.3310 ha         1 FUZ       0.128000
     24 NAK          0.2080     0.3310    -0.3140 nu         1 FUZ      -1.005200
     25 HAF          4.7870    -1.5030     1.2000 h4         1 FUZ       0.044100
     26 HNAK         0.3570    -0.6610    -0.0600 hn         1 FUZ       0.569000
@<TRIPOS>BOND
     1     1    12 1   
     2     2    12 1   
     3     3     4 ar  
     4     3     8 ar  
     5     3    16 1   
     6     4     9 ar  
     7     4    17 1   
     8     5     6 2   
     9     5     7 1   
    10     5    23 1   
    11     6    11 1   
    12     6    25 1   
    13     7    13 2   
    14     7    18 1   
    15     8    14 ar  
    16     8    19 1   
    17     9    15 ar  
    18     9    20 1   
    19    10    13 1   
    20    10    21 1   
    21    10    22 1   
    22    10    24 1   
    23    11    13 1   
    24    12    15 1   
    25    14    15 ar  
    26    14    24 1   
    27    24    26 1   
@<TRIPOS>SUBSTRUCTURE
     1 FUZ         1 TEMP              0 ****  ****    0 ROOT
