@<TRIPOS>MOLECULE
FV0
   41    41     1     0     0
SMALL
No Charge or Current Charge


@<TRIPOS>ATOM
      1 N11         -3.0100    -0.0510    -0.1480 n7         1 FV0      -0.851400
      2 C12         -4.1320    -0.2440     0.7880 c3         1 FV0       0.160800
      3 C13         -5.4360     0.3850     0.2360 c3         1 FV0      -0.062700
      4 C14         -5.9160    -0.2850    -1.0760 c3         1 FV0      -0.089600
      5 C15         -6.5540     0.3640     1.3040 c3         1 FV0      -0.089600
      6 C16         -1.7120    -0.6210     0.3020 c3         1 FV0       0.119800
      7 C17         -0.5670    -0.1700    -0.6470 c3         1 FV0       0.128300
      8 O18         -0.8510     1.1950    -0.9720 oh         1 FV0      -0.641000
      9 C19          0.8680    -0.3290    -0.0330 c3         1 FV0       0.137500
     10 N20          1.1440    -1.7330     0.3800 n8         1 FV0      -0.995200
     11 C32          1.9870     0.1790    -0.9880 c3         1 FV0      -0.020100
     12 C33          4.3690    -0.7320    -0.8620 ca         1 FV0      -0.098500
     13 C34          5.6590    -0.7400    -0.3040 ca         1 FV0      -0.113000
     14 C35          5.9790     0.1410     0.7440 ca         1 FV0      -0.113000
     15 C36          5.0070     1.0300     1.2320 ca         1 FV0      -0.113000
     16 C37          3.7160     1.0380     0.6740 ca         1 FV0      -0.098500
     17 C38          3.3870     0.1550    -0.3740 ca         1 FV0      -0.066300
     18 H12         -4.2980    -1.3150     0.9720 h1         1 FV0       0.026700
     19 H12A        -3.8930     0.2240     1.7530 h1         1 FV0       0.026700
     20 H13         -5.2250     1.4390     0.0130 hc         1 FV0       0.061700
     21 H14         -6.1050    -1.3540    -0.9220 hc         1 FV0       0.033867
     22 H14A        -6.8450     0.1790    -1.4290 hc         1 FV0       0.033867
     23 H14B        -5.1700    -0.1780    -1.8730 hc         1 FV0       0.033867
     24 H15         -6.2320     0.8880     2.2120 hc         1 FV0       0.033867
     25 H15A        -7.4570     0.8610     0.9300 hc         1 FV0       0.033867
     26 H15B        -6.8150    -0.6660     1.5760 hc         1 FV0       0.033867
     27 H16         -1.4840    -0.2680     1.3170 h1         1 FV0       0.030200
     28 H16A        -1.7600    -1.7180     0.3330 h1         1 FV0       0.030200
     29 H17         -0.6250    -0.7800    -1.5590 h1         1 FV0       0.063700
     30 HO18        -1.8130     1.2530    -0.7370 ho         1 FV0       0.447000
     31 H19          0.9020     0.2900     0.8760 h1         1 FV0       0.061700
     32 HN20         0.3990    -2.0620     1.0040 hn         1 FV0       0.395000
     33 H32          1.9630    -0.4110    -1.9120 hc         1 FV0       0.054700
     34 H32A         1.7620     1.2090    -1.2890 hc         1 FV0       0.054700
     35 H34          6.4110    -1.4280    -0.6840 ha         1 FV0       0.109000
     36 H35          6.9770     0.1350     1.1750 ha         1 FV0       0.109000
     37 H36          5.2530     1.7140     2.0410 ha         1 FV0       0.109000
     38 H37          2.9720     1.7330     1.0550 ha         1 FV0       0.108500
     39 H2          -3.2690    -0.5010    -1.0360 hn         1 FV0       0.413000
     40 H1           1.0740    -2.3500    -0.4360 hn         1 FV0       0.395000
     41 H33          4.1320    -1.4170    -1.6730 ha         1 FV0       0.108500
@<TRIPOS>BOND
     1     1     2 1   
     2     1     6 1   
     3     1    39 1   
     4     2     3 1   
     5     2    18 1   
     6     2    19 1   
     7     3     4 1   
     8     3     5 1   
     9     3    20 1   
    10     4    21 1   
    11     4    22 1   
    12     4    23 1   
    13     5    24 1   
    14     5    25 1   
    15     5    26 1   
    16     6     7 1   
    17     6    27 1   
    18     6    28 1   
    19     7     8 1   
    20     7     9 1   
    21     7    29 1   
    22     8    30 1   
    23     9    10 1   
    24     9    11 1   
    25     9    31 1   
    26    10    32 1   
    27    10    40 1   
    28    11    17 1   
    29    11    33 1   
    30    11    34 1   
    31    12    13 ar  
    32    12    17 ar  
    33    12    41 1   
    34    13    14 ar  
    35    13    35 1   
    36    14    15 ar  
    37    14    36 1   
    38    15    16 ar  
    39    15    37 1   
    40    16    17 ar  
    41    16    38 1   
@<TRIPOS>SUBSTRUCTURE
     1 FV0         1 TEMP              0 ****  ****    0 ROOT
