@<TRIPOS>MOLECULE
FV0
   41    41     1     0     0
SMALL
abcg2


@<TRIPOS>ATOM
      1 N11         -2.9940     0.2200    -0.0910 n7         1 FV0      -0.851400
      2 C12         -4.0830    -0.3060     0.7080 c3         1 FV0       0.160800
      3 C13         -5.4490     0.2120     0.2650 c3         1 FV0      -0.062700
      4 C14         -5.7810    -0.1920    -1.1680 c3         1 FV0      -0.089600
      5 C15         -6.5260    -0.2860     1.2230 c3         1 FV0      -0.089600
      6 C16         -1.7010    -0.2400     0.3730 c3         1 FV0       0.119800
      7 C17         -0.5740     0.2020    -0.5560 c3         1 FV0       0.128300
      8 O18         -0.6460     1.5830    -0.8420 oh         1 FV0      -0.641000
      9 C19          0.8170    -0.1800    -0.0050 c3         1 FV0       0.137500
     10 N20          0.9640    -1.5740     0.3710 n8         1 FV0      -0.995200
     11 C32          1.9090     0.1790    -1.0210 c3         1 FV0      -0.020100
     12 C33          4.0440    -1.0740    -0.5270 ca         1 FV0      -0.098500
     13 C34          5.3100    -1.1500     0.0380 ca         1 FV0      -0.113000
     14 C35          5.8430    -0.0570     0.7110 ca         1 FV0      -0.113000
     15 C36          5.1010     1.1130     0.8070 ca         1 FV0      -0.113000
     16 C37          3.8370     1.1840     0.2350 ca         1 FV0      -0.098500
     17 C38          3.2900     0.0940    -0.4390 ca         1 FV0      -0.066300
     18 H12         -4.1060    -1.4110     0.7120 h1         1 FV0       0.026700
     19 H12A        -3.9130    -0.0050     1.7470 h1         1 FV0       0.026700
     20 H13         -5.4200     1.3070     0.3180 hc         1 FV0       0.061700
     21 H14         -5.7680    -1.2800    -1.2790 hc         1 FV0       0.033867
     22 H14A        -6.7760     0.1560    -1.4490 hc         1 FV0       0.033867
     23 H14B        -5.0820     0.2280    -1.8930 hc         1 FV0       0.033867
     24 H15         -6.3230     0.0200     2.2510 hc         1 FV0       0.033867
     25 H15A        -7.5080     0.1030     0.9490 hc         1 FV0       0.033867
     26 H15B        -6.5890    -1.3770     1.2080 hc         1 FV0       0.033867
     27 H16         -1.5260     0.1670     1.3780 h1         1 FV0       0.030200
     28 H16A        -1.6640    -1.3350     0.4770 h1         1 FV0       0.030200
     29 H17         -0.7080    -0.3040    -1.5230 h1         1 FV0       0.063700
     30 HO18        -0.7830     2.0570    -0.0150 ho         1 FV0       0.447000
     31 H19          0.9830     0.4180     0.9010 h1         1 FV0       0.061700
     32 HN20         0.3440    -1.8110     1.1340 hn         1 FV0       0.395000
     33 H32          1.8230    -0.4990    -1.8770 hc         1 FV0       0.054700
     34 H32A         1.7310     1.1870    -1.3970 hc         1 FV0       0.054700
     35 H34          5.8820    -2.0660    -0.0430 ha         1 FV0       0.109000
     36 H35          6.8290    -0.1170     1.1530 ha         1 FV0       0.109000
     37 H36          5.5070     1.9720     1.3250 ha         1 FV0       0.109000
     38 H37          3.2680     2.1040     0.3090 ha         1 FV0       0.108500
     39 H2          -3.1130    -0.0800    -1.0520 hn         1 FV0       0.413000
     40 H1           0.7070    -2.1740    -0.4040 hn         1 FV0       0.395000
     41 H33          3.6360    -1.9310    -1.0480 ha         1 FV0       0.108500
@<TRIPOS>BOND
     1     1     2 1   
     2     1     6 1   
     3     1    39 1   
     4     2     3 1   
     5     2    18 1   
     6     2    19 1   
     7     3     4 1   
     8     3     5 1   
     9     3    20 1   
    10     4    21 1   
    11     4    22 1   
    12     4    23 1   
    13     5    24 1   
    14     5    25 1   
    15     5    26 1   
    16     6     7 1   
    17     6    27 1   
    18     6    28 1   
    19     7     8 1   
    20     7     9 1   
    21     7    29 1   
    22     8    30 1   
    23     9    10 1   
    24     9    11 1   
    25     9    31 1   
    26    10    32 1   
    27    10    40 1   
    28    11    17 1   
    29    11    33 1   
    30    11    34 1   
    31    12    13 ar  
    32    12    17 ar  
    33    12    41 1   
    34    13    14 ar  
    35    13    35 1   
    36    14    15 ar  
    37    14    36 1   
    38    15    16 ar  
    39    15    37 1   
    40    16    17 ar  
    41    16    38 1   
@<TRIPOS>SUBSTRUCTURE
     1 FV0         1 TEMP              0 ****  ****    0 ROOT
