@<TRIPOS>MOLECULE
FV3
   53    52     1     0     0
SMALL
bcc


@<TRIPOS>ATOM
      1 O1          -3.4350   -28.4630    15.3910 oh         1 FV3      -0.614800
      2 C1          -3.6600   -27.3150    14.5990 c3         1 FV3       0.098400
      3 C2          -4.9240   -27.5560    13.7900 c3         1 FV3       0.147100
      4 O6          -4.7880   -28.6940    12.9670 oh         1 FV3      -0.604800
      5 C3          -5.2360   -26.3920    12.8650 c3         1 FV3       0.132400
      6 O5          -5.5350   -25.2600    13.6390 os         1 FV3      -0.414600
      7 C6          -5.6220   -24.0650    12.8840 c3         1 FV3       0.180600
      8 C7          -6.7010   -24.0690    11.8390 c2         1 FV3      -0.236200
      9 C8          -8.0000   -23.8490    12.0580 c2         1 FV3      -0.064400
     10 C10         -8.5930   -23.5880    13.4090 c3         1 FV3      -0.060900
     11 C9          -8.9710   -23.8430    10.9030 c3         1 FV3      -0.044200
     12 C11         -8.9680   -22.5120    10.1310 c3         1 FV3      -0.033200
     13 C12         -9.3760   -21.3450    10.9720 c2         1 FV3      -0.170200
     14 C13         -8.6180   -20.3360    11.4100 c2         1 FV3      -0.107400
     15 C14         -7.1560   -20.1790    11.1090 c3         1 FV3      -0.053900
     16 C15         -9.2080   -19.2710    12.2960 c3         1 FV3      -0.036200
     17 C16         -9.0780   -17.8380    11.7530 c3         1 FV3      -0.033200
     18 C17         -9.6870   -17.6700    10.3970 c2         1 FV3      -0.167200
     19 C18        -10.8240   -17.0450    10.0810 c2         1 FV3      -0.116400
     20 C20        -11.7320   -16.3690    11.0650 c3         1 FV3      -0.054900
     21 C19        -11.2960   -16.9730     8.6570 c3         1 FV3      -0.054900
     22 H1          -2.5410   -28.4250    15.7410 ho         1 FV3       0.410000
     23 H2          -2.8250   -27.1330    13.9080 h1         1 FV3       0.036200
     24 H3          -3.7800   -26.4170    15.2140 h1         1 FV3       0.036200
     25 H4          -5.7660   -27.6810    14.4900 h1         1 FV3       0.055700
     26 H5          -4.4530   -29.4110    13.5160 ho         1 FV3       0.424000
     27 H6          -6.0790   -26.6660    12.2160 h1         1 FV3       0.038200
     28 H7          -4.3740   -26.2030    12.2060 h1         1 FV3       0.038200
     29 H8          -4.6580   -23.8620    12.3990 h1         1 FV3       0.045200
     30 H9          -5.7850   -23.2700    13.6140 h1         1 FV3       0.045200
     31 H10         -6.3870   -24.2770    10.8200 ha         1 FV3       0.119000
     32 H11         -7.8530   -23.4820    14.2000 hc         1 FV3       0.045033
     33 H12         -9.2060   -22.6860    13.3910 hc         1 FV3       0.045033
     34 H13         -9.2580   -24.4100    13.6880 hc         1 FV3       0.045033
     35 H14         -9.9820   -24.0490    11.2650 hc         1 FV3       0.046700
     36 H15         -8.7230   -24.6440    10.2020 hc         1 FV3       0.046700
     37 H16         -7.9810   -22.3650     9.6900 hc         1 FV3       0.044700
     38 H17         -9.6660   -22.6090     9.2930 hc         1 FV3       0.044700
     39 H18        -10.4210   -21.3490    11.2770 ha         1 FV3       0.114000
     40 H19         -6.5880   -20.0660    12.0350 hc         1 FV3       0.038700
     41 H20         -6.7360   -21.0230    10.5670 hc         1 FV3       0.038700
     42 H21         -6.9670   -19.2790    10.5180 hc         1 FV3       0.038700
     43 H22        -10.2650   -19.4850    12.4750 hc         1 FV3       0.043700
     44 H23         -8.7100   -19.3080    13.2720 hc         1 FV3       0.043700
     45 H24         -8.0200   -17.5630    11.7070 hc         1 FV3       0.042700
     46 H25         -9.5280   -17.1580    12.4780 hc         1 FV3       0.042700
     47 H26         -9.1310   -18.1300     9.5820 ha         1 FV3       0.118000
     48 H27        -11.3860   -16.4300    12.0950 hc         1 FV3       0.037533
     49 H28        -11.8510   -15.3120    10.8140 hc         1 FV3       0.037533
     50 H29        -12.7320   -16.8080    11.0240 hc         1 FV3       0.037533
     51 H30        -10.6170   -17.4800     7.9730 hc         1 FV3       0.037533
     52 H31        -12.2870   -17.4240     8.5480 hc         1 FV3       0.037533
     53 H32        -11.3930   -15.9340     8.3290 hc         1 FV3       0.037533
@<TRIPOS>BOND
     1     1     2 1   
     2     1    22 1   
     3     2     3 1   
     4     2    23 1   
     5     2    24 1   
     6     3     4 1   
     7     3     5 1   
     8     3    25 1   
     9     4    26 1   
    10     5     6 1   
    11     5    27 1   
    12     5    28 1   
    13     6     7 1   
    14     7     8 1   
    15     7    29 1   
    16     7    30 1   
    17     8     9 2   
    18     8    31 1   
    19     9    10 1   
    20     9    11 1   
    21    10    32 1   
    22    10    33 1   
    23    10    34 1   
    24    11    12 1   
    25    11    35 1   
    26    11    36 1   
    27    12    13 1   
    28    12    37 1   
    29    12    38 1   
    30    13    14 2   
    31    13    39 1   
    32    14    15 1   
    33    14    16 1   
    34    15    40 1   
    35    15    41 1   
    36    15    42 1   
    37    16    17 1   
    38    16    43 1   
    39    16    44 1   
    40    17    18 1   
    41    17    45 1   
    42    17    46 1   
    43    18    19 2   
    44    18    47 1   
    45    19    20 1   
    46    19    21 1   
    47    20    48 1   
    48    20    49 1   
    49    20    50 1   
    50    21    51 1   
    51    21    52 1   
    52    21    53 1   
@<TRIPOS>SUBSTRUCTURE
     1 FV3         1 TEMP              0 ****  ****    0 ROOT
