@<TRIPOS>MOLECULE
FV3
   53    52     1     0     0
SMALL
No Charge or Current Charge


@<TRIPOS>ATOM
      1 O1          -4.2850   -28.7120    15.5800 oh         1 FV3      -0.677000
      2 C1          -4.2230   -27.5100    14.7850 c3         1 FV3       0.121600
      3 C2          -5.3300   -27.5450    13.6980 c3         1 FV3       0.170300
      4 O6          -5.2720   -28.8330    13.0630 oh         1 FV3      -0.727000
      5 C3          -5.1880   -26.4110    12.6480 c3         1 FV3       0.155600
      6 O5          -5.2990   -25.1390    13.3230 os         1 FV3      -0.461000
      7 C6          -5.1630   -23.9800    12.4820 c3         1 FV3       0.203800
      8 C7          -6.3610   -23.9040    11.5560 c2         1 FV3      -0.286200
      9 C8          -7.6310   -23.6010    11.8850 c2         1 FV3      -0.064400
     10 C10         -8.1070   -23.2870    13.2970 c3         1 FV3      -0.060900
     11 C9          -8.7450   -23.5710    10.8470 c3         1 FV3      -0.044200
     12 C11         -8.8370   -22.2360    10.0730 c3         1 FV3      -0.033200
     13 C12         -9.2250   -21.0540    10.9460 c2         1 FV3      -0.220200
     14 C13         -8.4180   -20.1280    11.4990 c2         1 FV3      -0.107400
     15 C14         -6.8980   -20.1030    11.3890 c3         1 FV3      -0.053900
     16 C15         -8.9690   -18.9890    12.3480 c3         1 FV3      -0.036200
     17 C16         -8.9600   -17.6210    11.6300 c3         1 FV3      -0.033200
     18 C17         -9.7450   -17.6400    10.3300 c2         1 FV3      -0.217200
     19 C18        -11.0610   -17.4080    10.1600 c2         1 FV3      -0.116400
     20 C20        -12.0520   -17.0960    11.2720 c3         1 FV3      -0.054900
     21 C19        -11.7220   -17.4470     8.7950 c3         1 FV3      -0.054900
     22 H1          -3.6360   -28.6080    16.3140 ho         1 FV3       0.449000
     23 H2          -3.2400   -27.4210    14.3020 h1         1 FV3       0.036200
     24 H3          -4.3660   -26.6220    15.4160 h1         1 FV3       0.036200
     25 H4          -6.3010   -27.4220    14.1980 h1         1 FV3       0.055700
     26 H5          -4.9440   -29.4190    13.7910 ho         1 FV3       0.523000
     27 H6          -5.9780   -26.5220    11.8950 h1         1 FV3       0.038200
     28 H7          -4.2160   -26.4980    12.1440 h1         1 FV3       0.038200
     29 H8          -4.2350   -24.0300    11.8970 h1         1 FV3       0.045200
     30 H9          -5.1150   -23.0700    13.0950 h1         1 FV3       0.045200
     31 H10         -6.1110   -24.1210    10.5170 ha         1 FV3       0.169000
     32 H11         -7.2930   -23.3050    14.0290 hc         1 FV3       0.045033
     33 H12         -8.5680   -22.2950    13.3550 hc         1 FV3       0.045033
     34 H13         -8.8540   -24.0180    13.6290 hc         1 FV3       0.045033
     35 H14         -9.7160   -23.8000    11.3030 hc         1 FV3       0.046700
     36 H15         -8.5710   -24.3660    10.1120 hc         1 FV3       0.046700
     37 H16         -7.8870   -22.0580     9.5560 hc         1 FV3       0.044700
     38 H17         -9.5810   -22.3490     9.2750 hc         1 FV3       0.044700
     39 H18        -10.3030   -20.9790    11.0980 ha         1 FV3       0.164000
     40 H19         -6.4340   -20.0820    12.3830 hc         1 FV3       0.038700
     41 H20         -6.4910   -20.9780    10.8730 hc         1 FV3       0.038700
     42 H21         -6.5530   -19.2170    10.8430 hc         1 FV3       0.038700
     43 H22        -10.0030   -19.2070    12.6410 hc         1 FV3       0.043700
     44 H23         -8.4080   -18.9070    13.2870 hc         1 FV3       0.043700
     45 H24         -7.9240   -17.3180    11.4330 hc         1 FV3       0.042700
     46 H25         -9.3580   -16.8620    12.3130 hc         1 FV3       0.042700
     47 H26         -9.1240   -17.8670     9.4620 ha         1 FV3       0.168000
     48 H27        -11.5990   -17.1210    12.2680 hc         1 FV3       0.037533
     49 H28        -12.4910   -16.1000    11.1370 hc         1 FV3       0.037533
     50 H29        -12.8740   -17.8220    11.2780 hc         1 FV3       0.037533
     51 H30        -11.0010   -17.6740     8.0000 hc         1 FV3       0.037533
     52 H31        -12.5050   -18.2140     8.7560 hc         1 FV3       0.037533
     53 H32        -12.1850   -16.4830     8.5530 hc         1 FV3       0.037533
@<TRIPOS>BOND
     1     1     2 1   
     2     1    22 1   
     3     2     3 1   
     4     2    23 1   
     5     2    24 1   
     6     3     4 1   
     7     3     5 1   
     8     3    25 1   
     9     4    26 1   
    10     5     6 1   
    11     5    27 1   
    12     5    28 1   
    13     6     7 1   
    14     7     8 1   
    15     7    29 1   
    16     7    30 1   
    17     8     9 2   
    18     8    31 1   
    19     9    10 1   
    20     9    11 1   
    21    10    32 1   
    22    10    33 1   
    23    10    34 1   
    24    11    12 1   
    25    11    35 1   
    26    11    36 1   
    27    12    13 1   
    28    12    37 1   
    29    12    38 1   
    30    13    14 2   
    31    13    39 1   
    32    14    15 1   
    33    14    16 1   
    34    15    40 1   
    35    15    41 1   
    36    15    42 1   
    37    16    17 1   
    38    16    43 1   
    39    16    44 1   
    40    17    18 1   
    41    17    45 1   
    42    17    46 1   
    43    18    19 2   
    44    18    47 1   
    45    19    20 1   
    46    19    21 1   
    47    20    48 1   
    48    20    49 1   
    49    20    50 1   
    50    21    51 1   
    51    21    52 1   
    52    21    53 1   
@<TRIPOS>SUBSTRUCTURE
     1 FV3         1 TEMP              0 ****  ****    0 ROOT
