@<TRIPOS>MOLECULE
FV4
   48    51     1     0     0
SMALL
No Charge or Current Charge


@<TRIPOS>ATOM
      1 N1          -0.1790     2.5630    -1.0780 nc         1 FV4      -0.613100
      2 N3           4.5890     3.2000     0.7940 n7         1 FV4      -0.863400
      3 C4           0.2810     0.0220     1.6030 c3         1 FV4       0.136900
      4 C5           0.4760     2.0350    -0.0340 cd         1 FV4       0.623700
      5 C6          -1.3970     1.9070    -0.9900 ca         1 FV4       0.087400
      6 C7          -2.5070     2.0530    -1.8360 ca         1 FV4      -0.050000
      7 C8          -3.6590     1.2780    -1.5820 ca         1 FV4      -0.124000
      8 C10         -2.5630     0.2410     0.3450 ca         1 FV4      -0.101000
      9 C13          4.2080     2.6170    -0.5270 c6         1 FV4       0.152800
     10 C15          2.1780     2.9260     1.5570 c6         1 FV4       0.201800
     11 C17          1.7030    -2.5670    -0.8490 ca         1 FV4      -0.110800
     12 N           -0.2290     1.0800     0.7150 na         1 FV4      -0.188600
     13 C1           0.0110    -3.6630     0.5460 ca         1 FV4      -0.110800
     14 C11         -1.4340     1.0270     0.0630 ca         1 FV4      -0.071200
     15 C12          2.6960     2.8230    -0.8720 c6         1 FV4       0.201800
     16 C14          3.6920     2.7090     1.8810 c6         1 FV4       0.152800
     17 C16          1.4770    -1.3610    -0.1600 ca         1 FV4      -0.071000
     18 C18          2.7340    -2.6250    -1.9710 c3         1 FV4      -0.040800
     19 C19          0.9650    -3.7140    -0.4910 ca         1 FV4       0.175000
     20 C2          -0.2020    -2.4490     1.2260 ca         1 FV4      -0.071000
     21 C3           0.5250    -1.2960     0.8750 ca         1 FV4      -0.131300
     22 C9          -3.6850     0.3760    -0.4950 ca         1 FV4       0.128000
     23 N2           1.8060     2.3450     0.2310 nh         1 FV4      -0.729600
     24 Cl          -5.1250    -0.5860    -0.1900 cl         1 FV4      -0.212000
     25 H1           5.5600     2.9380     1.0110 hn         1 FV4       0.417000
     26 H3           1.2250     0.3490     2.0550 h1         1 FV4       0.066200
     27 H4          -0.4370    -0.1250     2.4200 h1         1 FV4       0.066200
     28 H5          -2.4760     2.7490    -2.6710 ha         1 FV4       0.132000
     29 H6          -4.5300     1.3740    -2.2250 ha         1 FV4       0.129000
     30 H7          -2.5790    -0.4500     1.1830 ha         1 FV4       0.130000
     31 H8           4.8270     3.0630    -1.3190 h1         1 FV4       0.038950
     32 H9           4.4200     1.5380    -0.5150 h1         1 FV4       0.038950
     33 H10          1.5720     2.4930     2.3660 h1         1 FV4       0.055700
     34 H11          1.9710     4.0060     1.5540 h1         1 FV4       0.055700
     35 H12         -1.3700    -5.2730     0.0780 hc         1 FV4       0.048033
     36 H13         -0.1180    -5.7140     1.2520 hc         1 FV4       0.048033
     37 H14         -1.4850    -4.7060     1.7490 hc         1 FV4       0.048033
     38 H15          2.5140     3.8910    -1.0610 h1         1 FV4       0.055700
     39 H16          2.4740     2.2850    -1.8050 h1         1 FV4       0.055700
     40 H17          3.8680     1.6330     2.0330 h1         1 FV4       0.038950
     41 H18          3.9420     3.2190     2.8230 h1         1 FV4       0.038950
     42 H19          2.0420    -0.4710    -0.4290 ha         1 FV4       0.121500
     43 H20          2.2670    -2.9180    -2.9180 hc         1 FV4       0.048033
     44 H21          3.2210    -1.6550    -2.1290 hc         1 FV4       0.048033
     45 H22          3.5200    -3.3560    -1.7440 hc         1 FV4       0.048033
     46 H23         -0.9380    -2.4000     2.0270 ha         1 FV4       0.121500
     47 F            1.1750    -4.8780    -1.1510 f          1 FV4      -0.180000
     48 C           -0.7850    -4.9050     0.9290 c3         1 FV4      -0.040800
@<TRIPOS>BOND
     1     1     4 2   
     2     1     5 1   
     3     2     9 1   
     4     2    16 1   
     5     2    25 1   
     6     3    12 1   
     7     3    21 1   
     8     3    26 1   
     9     3    27 1   
    10     4    12 1   
    11     4    23 1   
    12     5     6 ar  
    13     5    14 ar  
    14     6     7 ar  
    15     6    28 1   
    16     7    22 ar  
    17     7    29 1   
    18     8    14 ar  
    19     8    22 ar  
    20     8    30 1   
    21     9    15 1   
    22     9    31 1   
    23     9    32 1   
    24    10    16 1   
    25    10    23 1   
    26    10    33 1   
    27    10    34 1   
    28    11    17 ar  
    29    11    18 1   
    30    11    19 ar  
    31    12    14 1   
    32    13    19 ar  
    33    13    20 ar  
    34    13    48 1   
    35    15    23 1   
    36    15    38 1   
    37    15    39 1   
    38    16    40 1   
    39    16    41 1   
    40    17    21 ar  
    41    17    42 1   
    42    18    43 1   
    43    18    44 1   
    44    18    45 1   
    45    19    47 1   
    46    20    21 ar  
    47    20    46 1   
    48    22    24 1   
    49    35    48 1   
    50    36    48 1   
    51    37    48 1   
@<TRIPOS>SUBSTRUCTURE
     1 FV4         1 TEMP              0 ****  ****    0 ROOT
