@<TRIPOS>MOLECULE
FV4
   48    51     1     0     0
SMALL
abcg2


@<TRIPOS>ATOM
      1 N1          -0.1900     2.5090    -1.0350 nc         1 FV4      -0.613100
      2 N3           4.4250     3.1360     0.6830 n7         1 FV4      -0.863400
      3 C4           0.3000     0.0390     1.5680 c3         1 FV4       0.136900
      4 C5           0.5000     1.9650    -0.0700 cd         1 FV4       0.623700
      5 C6          -1.4300     1.9240    -0.9660 ca         1 FV4       0.087400
      6 C7          -2.5620     2.1210    -1.7480 ca         1 FV4      -0.050000
      7 C8          -3.7050     1.3940    -1.4540 ca         1 FV4      -0.124000
      8 C10         -2.5990     0.2670     0.4090 ca         1 FV4      -0.101000
      9 C13          4.0860     2.5160    -0.5840 c6         1 FV4       0.152800
     10 C15          2.1640     2.8170     1.4830 c6         1 FV4       0.201800
     11 C17          1.8630    -2.5370    -0.7460 ca         1 FV4      -0.110800
     12 N           -0.2190     1.0500     0.6630 na         1 FV4      -0.188600
     13 C1           0.0280    -3.6010     0.4810 ca         1 FV4      -0.110800
     14 C11         -1.4700     1.0080     0.0980 ca         1 FV4      -0.071200
     15 C12          2.6180     2.7460    -0.8900 c6         1 FV4       0.201800
     16 C14          3.6340     2.5830     1.7660 c6         1 FV4       0.152800
     17 C16          1.5950    -1.3540    -0.0690 ca         1 FV4      -0.071000
     18 C18          2.9680    -2.6430    -1.7530 c3         1 FV4      -0.040800
     19 C19          1.0590    -3.6270    -0.4430 ca         1 FV4       0.175000
     20 C2          -0.2020    -2.3900     1.1300 ca         1 FV4      -0.071000
     21 C3           0.5680    -1.2660     0.8640 ca         1 FV4      -0.131300
     22 C9          -3.7070     0.4850    -0.3940 ca         1 FV4       0.128000
     23 N2           1.8220     2.2000     0.2000 nh         1 FV4      -0.729600
     24 CL          -5.1590    -0.4130    -0.0690 cl         1 FV4      -0.212000
     25 H1           5.4090     3.0090     0.8760 hn         1 FV4       0.417000
     26 H3           1.2140     0.4120     2.0240 h1         1 FV4       0.066200
     27 H4          -0.4170    -0.0960     2.3780 h1         1 FV4       0.066200
     28 H5          -2.5560     2.8240    -2.5710 ha         1 FV4       0.132000
     29 H6          -4.5980     1.5270    -2.0480 ha         1 FV4       0.129000
     30 H7          -2.6260    -0.4450     1.2220 ha         1 FV4       0.130000
     31 H8           4.6880     2.9620    -1.3770 h1         1 FV4       0.038950
     32 H9           4.2800     1.4310    -0.5950 h1         1 FV4       0.038950
     33 H10          1.5580     2.3990     2.2850 h1         1 FV4       0.055700
     34 H11          1.9580     3.8950     1.4480 h1         1 FV4       0.055700
     35 H12         -1.2510    -5.2220    -0.1420 hc         1 FV4       0.048033
     36 H13         -0.1900    -5.6190     1.2010 hc         1 FV4       0.048033
     37 H14         -1.5920    -4.5910     1.4660 hc         1 FV4       0.048033
     38 H15          2.4290     3.8190    -1.0250 h1         1 FV4       0.055700
     39 H16          2.3490     2.2410    -1.8180 h1         1 FV4       0.055700
     40 H17          3.7940     1.5020     1.9080 h1         1 FV4       0.038950
     41 H18          3.9030     3.0800     2.7000 h1         1 FV4       0.038950
     42 H19          2.2120    -0.4840    -0.2700 ha         1 FV4       0.121500
     43 H20          2.5880    -2.9000    -2.7420 hc         1 FV4       0.048033
     44 H21          3.4980    -1.6950    -1.8370 hc         1 FV4       0.048033
     45 H22          3.6970    -3.4060    -1.4770 hc         1 FV4       0.048033
     46 H23         -0.9980    -2.3360     1.8650 ha         1 FV4       0.121500
     47 F            1.3020    -4.7850    -1.0870 f          1 FV4      -0.180000
     48 C           -0.7940    -4.8220     0.7640 c3         1 FV4      -0.040800
@<TRIPOS>BOND
     1     1     4 2   
     2     1     5 1   
     3     2     9 1   
     4     2    16 1   
     5     2    25 1   
     6     3    12 1   
     7     3    21 1   
     8     3    26 1   
     9     3    27 1   
    10     4    12 1   
    11     4    23 1   
    12     5     6 ar  
    13     5    14 ar  
    14     6     7 ar  
    15     6    28 1   
    16     7    22 ar  
    17     7    29 1   
    18     8    14 ar  
    19     8    22 ar  
    20     8    30 1   
    21     9    15 1   
    22     9    31 1   
    23     9    32 1   
    24    10    16 1   
    25    10    23 1   
    26    10    33 1   
    27    10    34 1   
    28    11    17 ar  
    29    11    18 1   
    30    11    19 ar  
    31    12    14 1   
    32    13    19 ar  
    33    13    20 ar  
    34    13    48 1   
    35    15    23 1   
    36    15    38 1   
    37    15    39 1   
    38    16    40 1   
    39    16    41 1   
    40    17    21 ar  
    41    17    42 1   
    42    18    43 1   
    43    18    44 1   
    44    18    45 1   
    45    19    47 1   
    46    20    21 ar  
    47    20    46 1   
    48    22    24 1   
    49    35    48 1   
    50    36    48 1   
    51    37    48 1   
@<TRIPOS>SUBSTRUCTURE
     1 FV4         1 TEMP              0 ****  ****    0 ROOT
