@<TRIPOS>MOLECULE
FV7
   58    62     1     0     0
SMALL
bcc


@<TRIPOS>ATOM
      1 N1           1.0990     1.3210    -0.5270 nc         1 FV7      -0.602100
      2 N3          -1.7530     5.2160    -1.6180 n7         1 FV7      -0.808200
      3 C4          -1.9660    -0.0260    -1.9000 c3         1 FV7       0.106600
      4 C5          -0.0680     1.4470    -1.0970 cd         1 FV7       0.620700
      5 C6           1.3750    -0.0190    -0.5660 ca         1 FV7       0.107400
      6 C7           2.4860    -0.7140    -0.0920 cp         1 FV7       0.019000
      7 C8           2.5290    -2.0860    -0.3090 ca         1 FV7      -0.125000
      8 C10          0.3590    -2.0770    -1.4260 ca         1 FV7      -0.111000
      9 C13          4.8760    -0.0420     0.0280 ca         1 FV7      -0.107000
     10 C15          5.7460     1.2800     1.8320 ca         1 FV7      -0.116000
     11 C17          3.4310     0.6590     1.7930 ca         1 FV7       0.058400
     12 C20         -1.5260     4.7090    -0.2780 c6         1 FV7       0.152800
     13 C21         -0.4100     3.6810    -0.3000 c6         1 FV7       0.199800
     14 C22         -3.0310     0.2360     0.3580 ca         1 FV7      -0.088500
     15 C25         -4.1340    -1.5730     1.4100 ca         1 FV7       0.139900
     16 C1          -3.8880    -2.4250     0.3470 ca         1 FV7      -0.109800
     17 C           -4.3620    -3.8460     0.3620 c3         1 FV7      -0.040800
     18 C23         -3.7310    -0.2450     1.4560 ca         1 FV7      -0.109800
     19 C3          -2.7450    -0.5780    -0.7350 ca         1 FV7      -0.132300
     20 C2          -3.1790    -1.8950    -0.7290 ca         1 FV7      -0.088500
     21 N           -0.5860     0.2540    -1.5430 na         1 FV7      -0.159300
     22 C11          0.3380    -0.7080    -1.2130 ca         1 FV7      -0.072200
     23 C9           1.4820    -2.7390    -0.9590 ca         1 FV7       0.033400
     24 CL           1.5890    -4.4580    -1.1840 cl         1 FV7      -0.116400
     25 C12          3.5980    -0.0200     0.5860 cp         1 FV7      -0.019000
     26 C16          4.4870     1.3080     2.4140 ca         1 FV7      -0.128000
     27 C14          5.9420     0.5990     0.6390 ca         1 FV7      -0.132000
     28 N2          -0.7740     2.6130    -1.2210 nh         1 FV7      -0.725600
     29 C19         -2.1310     4.1490    -2.5230 c6         1 FV7       0.152800
     30 C18         -1.0200     3.1200    -2.5730 c6         1 FV7       0.199800
     31 H1          -2.4750     5.9240    -1.6000 hn         1 FV7       0.360800
     32 H3          -1.9770    -0.7210    -2.7410 h1         1 FV7       0.067200
     33 H4          -2.4250     0.8950    -2.2500 h1         1 FV7       0.067200
     34 H5           3.3770    -2.6570     0.0450 ha         1 FV7       0.151000
     35 H6          -0.4400    -2.6050    -1.9270 ha         1 FV7       0.149000
     36 H7           5.0270    -0.5630    -0.9090 ha         1 FV7       0.137000
     37 H8           6.5690     1.7880     2.3160 ha         1 FV7       0.134000
     38 H9          -1.2350     5.5330     0.3760 h1         1 FV7       0.038700
     39 H10         -2.4230     4.2420     0.1590 h1         1 FV7       0.038700
     40 H11          0.5330     4.1580    -0.5960 h1         1 FV7       0.056200
     41 H12         -0.2690     3.2620     0.6950 h1         1 FV7       0.056200
     42 H13         -2.7130     1.2730     0.3520 ha         1 FV7       0.138500
     43 H14         -3.5760     0.2410     3.5500 hc         1 FV7       0.048367
     44 H15         -3.6880     1.6330     2.4790 hc         1 FV7       0.048367
     45 H16         -5.1190     0.6710     2.8290 hc         1 FV7       0.048367
     46 H17         -5.4500    -3.9080     0.4120 hc         1 FV7       0.048367
     47 H18         -4.0410    -4.3640    -0.5390 hc         1 FV7       0.048367
     48 H19         -3.9680    -4.3950     1.2190 hc         1 FV7       0.048367
     49 H20         -2.9740    -2.5350    -1.5800 ha         1 FV7       0.138500
     50 H21          4.3300     1.8260     3.3510 ha         1 FV7       0.145000
     51 H22          6.9230     0.5690     0.1820 ha         1 FV7       0.134000
     52 H23         -3.0640     3.6430    -2.2270 h1         1 FV7       0.038700
     53 H24         -2.2830     4.5580    -3.5230 h1         1 FV7       0.038700
     54 H25         -0.1070     3.5780    -2.9750 h1         1 FV7       0.056200
     55 H26         -1.2960     2.3070    -3.2440 h1         1 FV7       0.056200
     56 CL1          1.8880     0.6660     2.5800 cl         1 FV7      -0.104400
     57 C24         -4.0460     0.6180     2.6400 c3         1 FV7      -0.040800
     58 F           -4.8130    -2.0620     2.4660 f          1 FV7      -0.144900
@<TRIPOS>BOND
     1     1     4 2   
     2     1     5 1   
     3     2    12 1   
     4     2    29 1   
     5     2    31 1   
     6     3    19 1   
     7     3    21 1   
     8     3    32 1   
     9     3    33 1   
    10     4    21 1   
    11     4    28 1   
    12     5     6 ar  
    13     5    22 ar  
    14     6     7 ar  
    15     6    25 1   
    16     7    23 ar  
    17     7    34 1   
    18     8    22 ar  
    19     8    23 ar  
    20     8    35 1   
    21     9    25 ar  
    22     9    27 ar  
    23     9    36 1   
    24    10    26 ar  
    25    10    27 ar  
    26    10    37 1   
    27    11    25 ar  
    28    11    26 ar  
    29    11    56 1   
    30    12    13 1   
    31    12    38 1   
    32    12    39 1   
    33    13    28 1   
    34    13    40 1   
    35    13    41 1   
    36    14    18 ar  
    37    14    19 ar  
    38    14    42 1   
    39    15    16 ar  
    40    15    18 ar  
    41    15    58 1   
    42    16    17 1   
    43    16    20 ar  
    44    17    46 1   
    45    17    47 1   
    46    17    48 1   
    47    18    57 1   
    48    19    20 ar  
    49    20    49 1   
    50    21    22 1   
    51    23    24 1   
    52    26    50 1   
    53    27    51 1   
    54    28    30 1   
    55    29    30 1   
    56    29    52 1   
    57    29    53 1   
    58    30    54 1   
    59    30    55 1   
    60    43    57 1   
    61    44    57 1   
    62    45    57 1   
@<TRIPOS>SUBSTRUCTURE
     1 FV7         1 TEMP              0 ****  ****    0 ROOT
