@<TRIPOS>MOLECULE
FV7
   58    62     1     0     0
SMALL
No Charge or Current Charge


@<TRIPOS>ATOM
      1 N1           1.1080     1.4900    -0.6060 nc         1 FV7      -0.602100
      2 N3          -1.8990     5.4270    -2.0510 n7         1 FV7      -0.863400
      3 C4          -2.0350     0.0090    -1.8730 c3         1 FV7       0.135900
      4 C5          -0.0490     1.5610    -1.2690 cd         1 FV7       0.620700
      5 C6           1.3320     0.1170    -0.5320 ca         1 FV7       0.107400
      6 C7           2.3930    -0.6180     0.0590 cp         1 FV7       0.019000
      7 C8           2.3750    -2.0330    -0.0480 ca         1 FV7      -0.107000
      8 C10          0.2680    -1.9620    -1.2650 ca         1 FV7      -0.093000
      9 C13          4.8270    -0.0140     0.2570 ca         1 FV7      -0.089000
     10 C15          5.6680     1.3500     2.0870 ca         1 FV7      -0.098000
     11 C17          3.2960     0.7960     1.9710 ca         1 FV7       0.150000
     12 C20         -1.5200     5.0290    -0.6640 c6         1 FV7       0.152800
     13 C21         -0.3820     3.9560    -0.6250 c6         1 FV7       0.199800
     14 C22         -2.5740    -0.1300     0.6140 ca         1 FV7      -0.070500
     15 C25         -3.9340    -1.9320     1.5140 ca         1 FV7       0.175000
     16 C1          -4.0890    -2.4740     0.2220 ca         1 FV7      -0.109800
     17 C           -4.9080    -3.7420     0.0060 c3         1 FV7      -0.040800
     18 C23         -3.1780    -0.7600     1.7180 ca         1 FV7      -0.109800
     19 C3          -2.7140    -0.6650    -0.6820 ca         1 FV7      -0.132300
     20 C2          -3.4760    -1.8340    -0.8730 ca         1 FV7      -0.070500
     21 N           -0.6170     0.3360    -1.6290 na         1 FV7      -0.188600
     22 C11          0.3060    -0.5630    -1.1600 ca         1 FV7      -0.072200
     23 C9           1.3220    -2.6980    -0.7020 ca         1 FV7       0.125000
     24 Cl           1.3210    -4.4530    -0.8080 cl         1 FV7      -0.208000
     25 C12          3.5090     0.0670     0.7700 cp         1 FV7      -0.019000
     26 C16          4.3700     1.4310     2.6190 ca         1 FV7      -0.110000
     27 C14          5.8960     0.6250     0.9070 ca         1 FV7      -0.114000
     28 N2          -0.7010     2.7730    -1.4820 nh         1 FV7      -0.725600
     29 C19         -2.2260     4.2340    -2.8850 c6         1 FV7       0.152800
     30 C18         -1.0890     3.1600    -2.8740 c6         1 FV7       0.199800
     31 H1          -2.7190     6.0480    -2.0130 hn         1 FV7       0.416000
     32 H3          -2.0900    -0.6420    -2.7550 h1         1 FV7       0.067200
     33 H4          -2.5860     0.9270    -2.1080 h1         1 FV7       0.067200
     34 H5           3.1820    -2.6140     0.3910 ha         1 FV7       0.133000
     35 H6          -0.5500    -2.4700    -1.7680 ha         1 FV7       0.131000
     36 H7           5.0130    -0.5710    -0.6580 ha         1 FV7       0.119000
     37 H8           6.4960     1.8440     2.5930 ha         1 FV7       0.116000
     38 H9          -1.2040     5.9180    -0.0980 h1         1 FV7       0.038700
     39 H10         -2.4050     4.6170    -0.1560 h1         1 FV7       0.038700
     40 H11          0.5560     4.4200    -0.9650 h1         1 FV7       0.056200
     41 H12         -0.2310     3.6460     0.4190 h1         1 FV7       0.056200
     42 H13         -1.9900     0.7760     0.7650 ha         1 FV7       0.120500
     43 H14         -2.5490    -0.9090     3.7930 hc         1 FV7       0.048367
     44 H15         -2.3690     0.7130     3.1140 hc         1 FV7       0.048367
     45 H16         -3.9770     0.1100     3.5410 hc         1 FV7       0.048367
     46 H17         -5.9420    -3.6030     0.3420 hc         1 FV7       0.048367
     47 H18         -4.9400    -4.0330    -1.0500 hc         1 FV7       0.048367
     48 H19         -4.4830    -4.5820     0.5680 hc         1 FV7       0.048367
     49 H20         -3.5880    -2.2480    -1.8720 ha         1 FV7       0.120500
     50 H21          4.1950     1.9820     3.5400 ha         1 FV7       0.127000
     51 H22          6.9010     0.5560     0.4960 ha         1 FV7       0.116000
     52 H23         -3.1490     3.7710    -2.5040 h1         1 FV7       0.038700
     53 H24         -2.4200     4.5490    -3.9200 h1         1 FV7       0.038700
     54 H25         -0.2120     3.5720    -3.3960 h1         1 FV7       0.056200
     55 H26         -1.4170     2.2870    -3.4540 h1         1 FV7       0.056200
     56 Cl1          1.7010     0.8900     2.7230 cl         1 FV7      -0.196000
     57 C24         -3.0080    -0.1780     3.1170 c3         1 FV7      -0.040800
     58 F           -4.5180    -2.5440     2.5710 f          1 FV7      -0.180000
@<TRIPOS>BOND
     1     1     4 2   
     2     1     5 1   
     3     2    12 1   
     4     2    29 1   
     5     2    31 1   
     6     3    19 1   
     7     3    21 1   
     8     3    32 1   
     9     3    33 1   
    10     4    21 1   
    11     4    28 1   
    12     5     6 ar  
    13     5    22 ar  
    14     6     7 ar  
    15     6    25 1   
    16     7    23 ar  
    17     7    34 1   
    18     8    22 ar  
    19     8    23 ar  
    20     8    35 1   
    21     9    25 ar  
    22     9    27 ar  
    23     9    36 1   
    24    10    26 ar  
    25    10    27 ar  
    26    10    37 1   
    27    11    25 ar  
    28    11    26 ar  
    29    11    56 1   
    30    12    13 1   
    31    12    38 1   
    32    12    39 1   
    33    13    28 1   
    34    13    40 1   
    35    13    41 1   
    36    14    18 ar  
    37    14    19 ar  
    38    14    42 1   
    39    15    16 ar  
    40    15    18 ar  
    41    15    58 1   
    42    16    17 1   
    43    16    20 ar  
    44    17    46 1   
    45    17    47 1   
    46    17    48 1   
    47    18    57 1   
    48    19    20 ar  
    49    20    49 1   
    50    21    22 1   
    51    23    24 1   
    52    26    50 1   
    53    27    51 1   
    54    28    30 1   
    55    29    30 1   
    56    29    52 1   
    57    29    53 1   
    58    30    54 1   
    59    30    55 1   
    60    43    57 1   
    61    44    57 1   
    62    45    57 1   
@<TRIPOS>SUBSTRUCTURE
     1 FV7         1 TEMP              0 ****  ****    0 ROOT
