@<TRIPOS>MOLECULE
FV8
   43    45     1     0     0
SMALL
No Charge or Current Charge


@<TRIPOS>ATOM
      1 CAJ         -5.7110     2.1870     0.0850 cc         1 FV8      -0.218000
      2 NAN         -6.9740     2.2360     0.6410 na         1 FV8      -0.298500
      3 CAI         -7.4270     0.9470     0.7810 cc         1 FV8       0.389400
      4 NAO         -6.5160     0.0900     0.3430 nd         1 FV8      -0.680000
      5 CAT         -5.4520     0.8530    -0.0880 cd         1 FV8       0.235300
      6 CAK         -4.2100     0.2300    -0.6610 c3         1 FV8      -0.115700
      7 CAL         -3.3380    -0.4370     0.4190 c3         1 FV8       0.101000
      8 NAY         -2.0930    -1.0220    -0.1270 n          1 FV8      -0.284300
      9 OAE         -2.2540    -2.2930    -0.8030 oh         1 FV8      -0.446100
     10 C           -0.8320    -0.3480    -0.0600 c          1 FV8       0.606100
     11 O           -0.7130     0.7480     0.4820 o          1 FV8      -0.552100
     12 CA           0.3230    -1.1500    -0.7700 c5         1 FV8       0.033500
     13 N            1.5850    -0.3590    -0.9810 n2         1 FV8      -0.705900
     14 CB           0.7960    -2.2900     0.1700 c5         1 FV8       0.141300
     15 CG2          1.2350    -3.5760    -0.5640 c3         1 FV8      -0.110100
     16 OG1          1.9410    -1.7160     0.8200 os         1 FV8      -0.435600
     17 CAR          2.3750    -0.7080    -0.0120 ce         1 FV8       0.691200
     18 CAV          3.7110    -0.0800     0.2330 ca         1 FV8      -0.222900
     19 CAH          4.5120    -0.5320     1.3080 ca         1 FV8      -0.062000
     20 CAF          5.7710     0.0400     1.5600 ca         1 FV8      -0.133000
     21 CAG          6.2540     1.0740     0.7420 ca         1 FV8      -0.092000
     22 CAS          5.4740     1.5340    -0.3290 ca         1 FV8       0.091100
     23 OAC          5.9380     2.5400    -1.1290 oh         1 FV8      -0.536100
     24 CAU          4.2080     0.9630    -0.5870 ca         1 FV8       0.133100
     25 OAD          3.4740     1.4370    -1.6410 oh         1 FV8      -0.576100
     26 H1          -5.1140     3.0630    -0.1380 h4         1 FV8       0.162000
     27 H2          -7.4940     3.0650     0.9060 hn         1 FV8       0.354000
     28 H3          -8.4000     0.7080     1.1960 h5         1 FV8       0.055100
     29 H5          -4.4830    -0.5160    -1.4170 hc         1 FV8       0.061700
     30 H6          -3.6170     0.9940    -1.1760 hc         1 FV8       0.061700
     31 H7          -3.0920     0.3030     1.1920 h1         1 FV8       0.072700
     32 H8          -3.9180    -1.2310     0.9080 h1         1 FV8       0.072700
     33 H9          -2.2370    -2.9770    -0.0940 ho         1 FV8       0.448000
     34 H10         -0.0620    -1.5340    -1.7250 h1         1 FV8       0.110700
     35 H11          0.0440    -2.5580     0.9270 h1         1 FV8       0.084700
     36 H12          2.0180    -3.3700    -1.3040 hc         1 FV8       0.053700
     37 H13          1.6260    -4.3160     0.1440 hc         1 FV8       0.053700
     38 H14          0.3900    -4.0340    -1.0910 hc         1 FV8       0.053700
     39 H15          4.1620    -1.3330     1.9580 ha         1 FV8       0.127000
     40 H16          6.3730    -0.3200     2.3910 ha         1 FV8       0.120000
     41 H17          7.2280     1.5150     0.9370 ha         1 FV8       0.130000
     42 H18          5.2380     2.6970    -1.8040 ho         1 FV8       0.485000
     43 H19          2.6280     0.9080    -1.6490 ho         1 FV8       0.540000
@<TRIPOS>BOND
     1     1     2 1   
     2     1     5 2   
     3     1    26 1   
     4     2     3 1   
     5     2    27 1   
     6     3     4 2   
     7     3    28 1   
     8     4     5 1   
     9     5     6 1   
    10     6     7 1   
    11     6    29 1   
    12     6    30 1   
    13     7     8 1   
    14     7    31 1   
    15     7    32 1   
    16     8     9 1   
    17     8    10 1   
    18     9    33 1   
    19    10    11 2   
    20    10    12 1   
    21    12    13 1   
    22    12    14 1   
    23    12    34 1   
    24    13    17 2   
    25    14    15 1   
    26    14    16 1   
    27    14    35 1   
    28    15    36 1   
    29    15    37 1   
    30    15    38 1   
    31    16    17 1   
    32    17    18 1   
    33    18    19 ar  
    34    18    24 ar  
    35    19    20 ar  
    36    19    39 1   
    37    20    21 ar  
    38    20    40 1   
    39    21    22 ar  
    40    21    41 1   
    41    22    23 1   
    42    22    24 ar  
    43    23    42 1   
    44    24    25 1   
    45    25    43 1   
@<TRIPOS>SUBSTRUCTURE
     1 FV8         1 TEMP              0 ****  ****    0 ROOT
