@<TRIPOS>MOLECULE
FV8
   43    45     1     0     0
SMALL
abcg2


@<TRIPOS>ATOM
      1 CAJ         -5.5710     2.2080    -0.0710 cc         1 FV8      -0.218000
      2 NAN         -6.8580     2.2200     0.3830 na         1 FV8      -0.298500
      3 CAI         -7.2520     0.9420     0.5210 cc         1 FV8       0.389400
      4 NAO         -6.3010     0.1070     0.1840 nd         1 FV8      -0.680000
      5 CAT         -5.2390     0.8860    -0.1920 cd         1 FV8       0.235300
      6 CAK         -3.9400     0.2950    -0.6210 c3         1 FV8      -0.115700
      7 CAL         -3.2270    -0.3870     0.5490 c3         1 FV8       0.101000
      8 NAY         -1.9990    -1.0450     0.1570 n          1 FV8      -0.284300
      9 OAE         -2.1570    -2.2060    -0.5590 oh         1 FV8      -0.446100
     10 C           -0.8090    -0.4120     0.0590 c          1 FV8       0.606100
     11 O           -0.6360     0.7040     0.5140 o          1 FV8      -0.552100
     12 CA           0.3110    -1.2010    -0.6180 c5         1 FV8       0.033500
     13 N            1.4790    -0.3590    -0.7500 n2         1 FV8      -0.705900
     14 CB           0.8180    -2.3960     0.2310 c5         1 FV8       0.141300
     15 CG2          1.0750    -3.6470    -0.5760 c3         1 FV8      -0.110100
     16 OG1          2.0680    -1.8920     0.7560 os         1 FV8      -0.435600
     17 CAR          2.3640    -0.7990     0.0580 ce         1 FV8       0.691200
     18 CAV          3.6610    -0.1710     0.2520 ca         1 FV8      -0.222900
     19 CAH          4.6230    -0.7110     1.1140 ca         1 FV8      -0.062000
     20 CAF          5.8360    -0.0760     1.2700 ca         1 FV8      -0.133000
     21 CAG          6.1100     1.0990     0.5720 ca         1 FV8      -0.092000
     22 CAS          5.1710     1.6460    -0.2830 ca         1 FV8       0.091100
     23 OAC          5.4580     2.7840    -0.9460 oh         1 FV8      -0.536100
     24 CAU          3.9290     1.0120    -0.4500 ca         1 FV8       0.133100
     25 OAD          3.0640     1.5890    -1.2900 oh         1 FV8      -0.576100
     26 H1          -5.0160     3.1090    -0.2670 h4         1 FV8       0.162000
     27 H2          -7.4130     3.0380     0.5760 hn         1 FV8       0.354000
     28 H3          -8.2390     0.6740     0.8670 h5         1 FV8       0.055100
     29 H5          -4.1060    -0.4350    -1.4170 hc         1 FV8       0.061700
     30 H6          -3.3000     1.0790    -1.0300 hc         1 FV8       0.061700
     31 H7          -2.9870     0.3420     1.3210 h1         1 FV8       0.072700
     32 H8          -3.8750    -1.1350     1.0080 h1         1 FV8       0.072700
     33 H9          -2.2520    -2.9120     0.0950 ho         1 FV8       0.448000
     34 H10         -0.0230    -1.5380    -1.6010 h1         1 FV8       0.110700
     35 H11          0.1820    -2.6160     1.0900 h1         1 FV8       0.084700
     36 H12          1.7100    -3.4400    -1.4390 hc         1 FV8       0.053700
     37 H13          1.5530    -4.4150     0.0320 hc         1 FV8       0.053700
     38 H14          0.1310    -4.0500    -0.9420 hc         1 FV8       0.053700
     39 H15          4.4150    -1.6250     1.6520 ha         1 FV8       0.127000
     40 H16          6.5830    -0.4880     1.9340 ha         1 FV8       0.120000
     41 H17          7.0650     1.5950     0.6910 ha         1 FV8       0.130000
     42 H18          4.7250     3.0270    -1.5250 ho         1 FV8       0.485000
     43 H19          2.2370     1.0330    -1.3150 ho         1 FV8       0.540000
@<TRIPOS>BOND
     1     1     2 1   
     2     1     5 2   
     3     1    26 1   
     4     2     3 1   
     5     2    27 1   
     6     3     4 2   
     7     3    28 1   
     8     4     5 1   
     9     5     6 1   
    10     6     7 1   
    11     6    29 1   
    12     6    30 1   
    13     7     8 1   
    14     7    31 1   
    15     7    32 1   
    16     8     9 1   
    17     8    10 1   
    18     9    33 1   
    19    10    11 2   
    20    10    12 1   
    21    12    13 1   
    22    12    14 1   
    23    12    34 1   
    24    13    17 2   
    25    14    15 1   
    26    14    16 1   
    27    14    35 1   
    28    15    36 1   
    29    15    37 1   
    30    15    38 1   
    31    16    17 1   
    32    17    18 1   
    33    18    19 ar  
    34    18    24 ar  
    35    19    20 ar  
    36    19    39 1   
    37    20    21 ar  
    38    20    40 1   
    39    21    22 ar  
    40    21    41 1   
    41    22    23 1   
    42    22    24 ar  
    43    23    42 1   
    44    24    25 1   
    45    25    43 1   
@<TRIPOS>SUBSTRUCTURE
     1 FV8         1 TEMP              0 ****  ****    0 ROOT
