@<TRIPOS>MOLECULE
FVD
   61    65     1     0     0
SMALL
bcc


@<TRIPOS>ATOM
      1 N1           0.4060    -0.3600     1.4280 na         1 FVD      -0.158300
      2 N3           1.4530    -5.3360     1.0510 n7         1 FVD      -0.807200
      3 C4           2.6210     0.3920     0.6850 ca         1 FVD      -0.132300
      4 C5           1.7900    -0.1480     1.8200 c3         1 FVD       0.107600
      5 C6          -0.1290    -1.4900     0.8600 cc         1 FVD       0.616700
      6 C7           0.1930    -3.6430    -0.1500 c6         1 FVD       0.199300
      7 C8           1.2870    -4.6910    -0.2370 c6         1 FVD       0.152800
      8 C10          0.7360    -3.3250     2.1850 c6         1 FVD       0.199300
      9 C13         -3.7780     0.2420    -0.6910 ce         1 FVD      -0.064400
     10 C15         -4.6730    -1.3020    -2.4360 c6         1 FVD       0.189000
     11 C17         -5.1790     0.6890    -0.3600 c6         1 FVD      -0.032200
     12 C20         -0.4790     1.9860     1.5480 ca         1 FVD      -0.123000
     13 C21         -0.4950     0.6480     1.1900 ca         1 FVD      -0.069200
     14 C22          3.0450     1.7140     0.6810 ca         1 FVD      -0.088000
     15 C14         -3.5720    -0.6550    -1.6600 c2         1 FVD      -0.132200
     16 N5          -5.9620    -1.0860    -1.8130 n7         1 FVD      -0.800200
     17 C16         -6.1530     0.3090    -1.4630 c6         1 FVD       0.159800
     18 C12         -2.6540     0.8160     0.0750 ca         1 FVD       0.025200
     19 C18         -2.6490     2.1600     0.4490 ca         1 FVD      -0.141000
     20 C19         -1.5860     2.7170     1.1560 ca         1 FVD       0.040400
     21 CL1         -1.6540     4.4070     1.5600 cl         1 FVD      -0.121400
     22 C11         -1.5450     0.0550     0.4690 ca         1 FVD       0.092400
     23 N4          -1.2850    -1.2820     0.2940 nd         1 FVD      -0.609100
     24 N2           0.5510    -2.6800     0.8830 nh         1 FVD      -0.724600
     25 C9           1.8230    -4.3740     2.0710 c6         1 FVD       0.152800
     26 C3           2.9640    -0.4320    -0.3830 ca         1 FVD      -0.088000
     27 C2           3.7090     0.0420    -1.4550 ca         1 FVD      -0.112300
     28 C1           4.0830    -0.8360    -2.6120 c3         1 FVD      -0.040300
     29 C25          4.0980     1.3730    -1.4090 ca         1 FVD       0.140900
     30 F1           4.8200     1.8540    -2.4390 f          1 FVD      -0.145900
     31 C23          3.7960     2.2360    -0.3690 ca         1 FVD      -0.112300
     32 H1           2.1580    -6.0580     0.9860 hn         1 FVD       0.360800
     33 H3           1.8070     0.5320     2.6720 h1         1 FVD       0.066700
     34 H4           2.2000    -1.0930     2.1680 h1         1 FVD       0.066700
     35 H5           0.1000    -3.1260    -1.1040 h1         1 FVD       0.055950
     36 H6          -0.7700    -4.1220     0.0660 h1         1 FVD       0.055950
     37 H7           2.2090    -4.2040    -0.5930 h1         1 FVD       0.038200
     38 H8           1.0050    -5.4390    -0.9810 h1         1 FVD       0.038200
     39 H9           1.0050    -2.5880     2.9410 h1         1 FVD       0.055950
     40 H10         -0.2020    -3.7950     2.5100 h1         1 FVD       0.055950
     41 H11         -4.6240    -0.9350    -3.4760 h1         1 FVD       0.038200
     42 H12         -4.4770    -2.3770    -2.4950 h1         1 FVD       0.038200
     43 H13         -5.4880     0.2400     0.5900 hc         1 FVD       0.053200
     44 H14         -5.2220     1.7700    -0.2110 hc         1 FVD       0.053200
     45 H15          0.3320     2.4380     2.1010 ha         1 FVD       0.148000
     46 H16          2.7980     2.3620     1.5150 ha         1 FVD       0.139500
     47 H17          3.8990     4.1970    -1.2590 hc         1 FVD       0.048033
     48 H18          3.9000     4.1870     0.5010 hc         1 FVD       0.048033
     49 H19          5.3500     3.7300    -0.3860 hc         1 FVD       0.048033
     50 H20         -2.5650    -0.9530    -1.9240 ha         1 FVD       0.139000
     51 H21         -6.6920    -1.3830    -2.4470 hn         1 FVD       0.353800
     52 H23         -7.1780     0.4510    -1.1190 h1         1 FVD       0.029700
     53 H24         -6.0050     0.9860    -2.3190 h1         1 FVD       0.029700
     54 H25         -3.4750     2.8000     0.1690 ha         1 FVD       0.147000
     55 H26          1.9270    -4.8850     3.0300 h1         1 FVD       0.038200
     56 H27          2.7780    -3.8670     1.8600 h1         1 FVD       0.038200
     57 H28          2.6530    -1.4710    -0.3790 ha         1 FVD       0.139500
     58 H29          5.1630    -0.8760    -2.7570 hc         1 FVD       0.048033
     59 H30          3.7330    -1.8530    -2.4490 hc         1 FVD       0.048033
     60 H31          3.6440    -0.4800    -3.5450 hc         1 FVD       0.048033
     61 C24          4.2610     3.6610    -0.3810 c3         1 FVD      -0.040300
@<TRIPOS>BOND
     1     1     4 1   
     2     1     5 1   
     3     1    13 1   
     4     2     7 1   
     5     2    25 1   
     6     2    32 1   
     7     3     4 1   
     8     3    14 ar  
     9     3    26 ar  
    10     4    33 1   
    11     4    34 1   
    12     5    23 2   
    13     5    24 1   
    14     6     7 1   
    15     6    24 1   
    16     6    35 1   
    17     6    36 1   
    18     7    37 1   
    19     7    38 1   
    20     8    24 1   
    21     8    25 1   
    22     8    39 1   
    23     8    40 1   
    24     9    11 1   
    25     9    15 2   
    26     9    18 1   
    27    10    15 1   
    28    10    16 1   
    29    10    41 1   
    30    10    42 1   
    31    11    17 1   
    32    11    43 1   
    33    11    44 1   
    34    12    13 ar  
    35    12    20 ar  
    36    12    45 1   
    37    13    22 ar  
    38    14    31 ar  
    39    14    46 1   
    40    15    50 1   
    41    16    17 1   
    42    16    51 1   
    43    17    52 1   
    44    17    53 1   
    45    18    19 ar  
    46    18    22 ar  
    47    19    20 ar  
    48    19    54 1   
    49    20    21 1   
    50    22    23 1   
    51    25    55 1   
    52    25    56 1   
    53    26    27 ar  
    54    26    57 1   
    55    27    28 1   
    56    27    29 ar  
    57    28    58 1   
    58    28    59 1   
    59    28    60 1   
    60    29    30 1   
    61    29    31 ar  
    62    31    61 1   
    63    47    61 1   
    64    48    61 1   
    65    49    61 1   
@<TRIPOS>SUBSTRUCTURE
     1 FVD         1 TEMP              0 ****  ****    0 ROOT
