@<TRIPOS>MOLECULE
FVD
   61    65     1     0     0
SMALL
No Charge or Current Charge


@<TRIPOS>ATOM
      1 N1           0.3760    -0.3510     1.3640 na         1 FVD      -0.187600
      2 N3           1.5660    -5.4970     1.2510 n7         1 FVD      -0.862400
      3 C4           2.6280     0.4860     0.6780 ca         1 FVD      -0.132300
      4 C5           1.7610    -0.0880     1.7930 c3         1 FVD       0.136900
      5 C6          -0.1890    -1.5450     0.9090 cc         1 FVD       0.616700
      6 C7           0.0840    -3.8460    -0.0050 c6         1 FVD       0.199300
      7 C8           1.2210    -4.9190    -0.0810 c6         1 FVD       0.152800
      8 C10          0.7270    -3.3580     2.3420 c6         1 FVD       0.199300
      9 C13         -3.7860     0.2120    -0.8050 ce         1 FVD      -0.064400
     10 C15         -4.7620    -1.2400    -2.6490 c6         1 FVD       0.189000
     11 C17         -5.1980     0.5060    -0.2730 c6         1 FVD      -0.032200
     12 C20         -0.4240     2.0280     1.2680 ca         1 FVD      -0.105000
     13 C21         -0.4960     0.6470     1.0390 ca         1 FVD      -0.069200
     14 C22          3.2630     1.7320     0.8410 ca         1 FVD      -0.070000
     15 C14         -3.6160    -0.6050    -1.8730 c2         1 FVD      -0.182200
     16 N5          -6.0120    -1.2360    -1.8560 n7         1 FVD      -0.855400
     17 C16         -6.3010     0.0950    -1.2790 c6         1 FVD       0.159800
     18 C12         -2.6290     0.8290    -0.0870 ca         1 FVD       0.025200
     19 C18         -2.5810     2.2270     0.1290 ca         1 FVD      -0.123000
     20 C19         -1.4880     2.8190     0.8000 ca         1 FVD       0.132000
     21 Cl1         -1.4540     4.5600     1.0470 cl         1 FVD      -0.213000
     22 C11         -1.5470     0.0550     0.3890 ca         1 FVD       0.092400
     23 N4          -1.3640    -1.3280     0.2990 nd         1 FVD      -0.609100
     24 N2           0.3900    -2.7870     1.0030 nh         1 FVD      -0.724600
     25 C9           1.8660    -4.4250     2.2450 c6         1 FVD       0.152800
     26 C3           2.7950    -0.2290    -0.5240 ca         1 FVD      -0.070000
     27 C2           3.5840     0.2960    -1.5650 ca         1 FVD      -0.112300
     28 C1           3.7540    -0.4850    -2.8620 c3         1 FVD      -0.040300
     29 C25          4.2100     1.5470    -1.3920 ca         1 FVD       0.176000
     30 F1           4.9690     2.0590    -2.3890 f          1 FVD      -0.181000
     31 C23          4.0550     2.2710    -0.1910 ca         1 FVD      -0.112300
     32 H1           2.3890    -6.1070     1.1520 hn         1 FVD       0.416000
     33 H3           1.7380     0.5990     2.6490 h1         1 FVD       0.066700
     34 H4           2.2200    -1.0210     2.1390 h1         1 FVD       0.066700
     35 H5          -0.0460    -3.4010    -1.0030 h1         1 FVD       0.055950
     36 H6          -0.8610    -4.3440     0.2530 h1         1 FVD       0.055950
     37 H7           2.1180    -4.4470    -0.5090 h1         1 FVD       0.038200
     38 H8           0.9180    -5.7250    -0.7650 h1         1 FVD       0.038200
     39 H9           1.0270    -2.5730     3.0490 h1         1 FVD       0.055950
     40 H10         -0.1660    -3.8380     2.7690 h1         1 FVD       0.055950
     41 H11         -4.9180    -0.6780    -3.5810 h1         1 FVD       0.038200
     42 H12         -4.5030    -2.2740    -2.9240 h1         1 FVD       0.038200
     43 H13         -5.3420    -0.0470     0.6640 hc         1 FVD       0.053200
     44 H14         -5.3150     1.5690    -0.0250 hc         1 FVD       0.053200
     45 H15          0.4190     2.4790     1.7830 ha         1 FVD       0.130000
     46 H16          3.1380     2.2860     1.7700 ha         1 FVD       0.121500
     47 H17          4.3950     4.3380    -0.7690 hc         1 FVD       0.048033
     48 H18          4.5190     4.0600     0.9730 hc         1 FVD       0.048033
     49 H19          5.8230     3.5310    -0.0980 hc         1 FVD       0.048033
     50 H20         -2.6170    -0.8290    -2.2450 ha         1 FVD       0.189000
     51 H21         -6.7880    -1.5140    -2.4710 hn         1 FVD       0.409000
     52 H23         -7.2760     0.0790    -0.7700 h1         1 FVD       0.029700
     53 H24         -6.3570     0.8380    -2.0880 h1         1 FVD       0.029700
     54 H25         -3.3830     2.8620    -0.2350 ha         1 FVD       0.129000
     55 H26          2.0310    -4.8760     3.2350 h1         1 FVD       0.038200
     56 H27          2.7990    -3.9170     1.9570 h1         1 FVD       0.038200
     57 H28          2.3090    -1.1940    -0.6480 ha         1 FVD       0.121500
     58 H29          4.8100    -0.7160    -3.0460 hc         1 FVD       0.048033
     59 H30          3.2070    -1.4360    -2.8430 hc         1 FVD       0.048033
     60 H31          3.3830     0.0910    -3.7180 hc         1 FVD       0.048033
     61 C24          4.7340     3.6230    -0.0090 c3         1 FVD      -0.040300
@<TRIPOS>BOND
     1     1     4 1   
     2     1     5 1   
     3     1    13 1   
     4     2     7 1   
     5     2    25 1   
     6     2    32 1   
     7     3     4 1   
     8     3    14 ar  
     9     3    26 ar  
    10     4    33 1   
    11     4    34 1   
    12     5    23 2   
    13     5    24 1   
    14     6     7 1   
    15     6    24 1   
    16     6    35 1   
    17     6    36 1   
    18     7    37 1   
    19     7    38 1   
    20     8    24 1   
    21     8    25 1   
    22     8    39 1   
    23     8    40 1   
    24     9    11 1   
    25     9    15 2   
    26     9    18 1   
    27    10    15 1   
    28    10    16 1   
    29    10    41 1   
    30    10    42 1   
    31    11    17 1   
    32    11    43 1   
    33    11    44 1   
    34    12    13 ar  
    35    12    20 ar  
    36    12    45 1   
    37    13    22 ar  
    38    14    31 ar  
    39    14    46 1   
    40    15    50 1   
    41    16    17 1   
    42    16    51 1   
    43    17    52 1   
    44    17    53 1   
    45    18    19 ar  
    46    18    22 ar  
    47    19    20 ar  
    48    19    54 1   
    49    20    21 1   
    50    22    23 1   
    51    25    55 1   
    52    25    56 1   
    53    26    27 ar  
    54    26    57 1   
    55    27    28 1   
    56    27    29 ar  
    57    28    58 1   
    58    28    59 1   
    59    28    60 1   
    60    29    30 1   
    61    29    31 ar  
    62    31    61 1   
    63    47    61 1   
    64    48    61 1   
    65    49    61 1   
@<TRIPOS>SUBSTRUCTURE
     1 FVD         1 TEMP              0 ****  ****    0 ROOT
