@<TRIPOS>MOLECULE
FVF
   74    76     1     0     0
SMALL
abcg2


@<TRIPOS>ATOM
      1 C1          51.1850    14.2540    38.0800 c          1 FVF       0.637100
      2 O1          51.7110    13.3080    38.6490 o          1 FVF      -0.600000
      3 OA1         51.6380    15.5200    38.1500 os         1 FVF      -0.429100
      4 CB1         52.8560    15.7400    38.8940 c3         1 FVF       0.232900
      5 CG1         53.1990    17.1970    38.7860 ca         1 FVF      -0.095300
      6 CDB         53.2560    17.8210    37.5390 ca         1 FVF      -0.077000
      7 CDC         53.4750    17.9400    39.9300 ca         1 FVF      -0.077000
      8 CEB         53.5780    19.1680    37.4410 ca         1 FVF      -0.110500
      9 CEC         53.8120    19.2870    39.8330 ca         1 FVF      -0.110500
     10 CZ1         53.8600    19.9050    38.5890 ca         1 FVF      -0.110000
     11 N2          50.0900    14.1660    37.2930 ns         1 FVF      -0.467900
     12 C2          48.5820    16.0520    37.7730 c          1 FVF       0.573100
     13 O2          47.8310    15.4330    38.5330 o          1 FVF      -0.690100
     14 CA2         49.3960    15.3020    36.7090 c3         1 FVF       0.038700
     15 CB2         48.4560    14.8190    35.5930 c3         1 FVF      -0.046100
     16 CG2         49.1900    14.1080    34.4850 ca         1 FVF      -0.054300
     17 CDL         49.1200    12.7210    34.3560 ca         1 FVF      -0.099500
     18 CDM         49.9800    14.8250    33.5840 ca         1 FVF      -0.099500
     19 CEL         49.8240    12.0610    33.3530 ca         1 FVF      -0.126500
     20 CEM         50.6840    14.1700    32.5800 ca         1 FVF      -0.126500
     21 CZ2         50.6100    12.7840    32.4620 ca         1 FVF      -0.138000
     22 N3          48.7520    17.3780    37.7760 ns         1 FVF      -0.438900
     23 CA3         48.0270    18.2800    38.6600 c3         1 FVF      -0.226300
     24 CB3         48.9070    18.8040    39.8170 c3         1 FVF      -0.038700
     25 CGD         50.0890    19.6590    39.3580 c3         1 FVF      -0.081600
     26 CGN         49.3980    17.6460    40.6900 c3         1 FVF      -0.081600
     27 P3          47.1380    19.5640    37.6700 p5         1 FVF       1.425400
     28 OPV         46.1920    18.8810    36.7230 o          1 FVF      -0.835500
     29 OPW         46.6080    20.5960    38.6230 o          1 FVF      -0.835500
     30 OPX         48.3500    20.2560    36.8150 os         1 FVF      -0.626400
     31 CA4         48.4370    20.2190    35.3870 c3         1 FVF       0.130300
     32 C4          49.1250    18.9370    34.8620 c          1 FVF       0.698000
     33 O4          50.0990    18.4900    35.5280 o          1 FVF      -0.745500
     34 O11         48.6770    18.4640    33.7940 o          1 FVF      -0.745500
     35 CB4         49.2350    21.4680    34.9830 c3         1 FVF      -0.039100
     36 CG4         49.4190    21.6170    33.4970 ca         1 FVF      -0.020300
     37 CD5         48.3680    22.0600    32.6910 ca         1 FVF      -0.096000
     38 CD6         50.6300    21.2870    32.8890 ca         1 FVF      -0.096000
     39 CE5         48.5200    22.1630    31.3130 ca         1 FVF      -0.122500
     40 CE6         50.7880    21.3890    31.5100 ca         1 FVF      -0.122500
     41 CZ4         49.7320    21.8250    30.7160 ca         1 FVF      -0.144000
     42 HB11        52.7050    15.4470    39.9320 h1         1 FVF       0.041200
     43 HB21        53.6400    15.1110    38.4670 h1         1 FVF       0.041200
     44 HD11        53.0310    17.2530    36.6450 ha         1 FVF       0.118500
     45 HD21        53.4170    17.4650    40.9020 ha         1 FVF       0.118500
     46 HE11        53.6070    19.6450    36.4690 ha         1 FVF       0.107500
     47 HE21        54.0210    19.8560    40.7310 ha         1 FVF       0.107500
     48 HZ1         54.1100    20.9560    38.5130 ha         1 FVF       0.098000
     49 HN2         49.6210    13.2740    37.3120 hn         1 FVF       0.321500
     50 HA2         50.1350    15.9730    36.2780 h1         1 FVF       0.113700
     51 HB12        47.7030    14.1600    36.0300 hc         1 FVF       0.083200
     52 HB22        47.9380    15.6960    35.2020 hc         1 FVF       0.083200
     53 HD12        48.5080    12.1530    35.0480 ha         1 FVF       0.135500
     54 HD22        50.0380    15.9030    33.6670 ha         1 FVF       0.135500
     55 HE12        49.7580    10.9830    33.2690 ha         1 FVF       0.094500
     56 HE22        51.2900    14.7410    31.8870 ha         1 FVF       0.094500
     57 HZ2         51.1590    12.2730    31.6800 ha         1 FVF       0.085000
     58 HN3         49.3590    17.7910    37.0640 hn         1 FVF       0.381500
     59 HA3         47.2230    17.6920    39.1070 h1         1 FVF       0.065700
     60 HB3         48.2480    19.4310    40.4220 hc         1 FVF       0.049700
     61 H113        50.6750    19.9800    40.2210 hc         1 FVF       0.022200
     62 H123        50.7560    19.0930    38.7050 hc         1 FVF       0.022200
     63 H133        49.7590    20.5430    38.8150 hc         1 FVF       0.022200
     64 H213        49.9660    18.0290    41.5410 hc         1 FVF       0.022200
     65 H223        48.5650    17.0520    41.0720 hc         1 FVF       0.022200
     66 H233        50.0560    16.9830    40.1240 hc         1 FVF       0.022200
     67 HA4         47.4370    20.2630    34.9580 h1         1 FVF       0.045700
     68 HB14        48.7030    22.3340    35.3840 hc         1 FVF       0.042200
     69 HB24        50.2070    21.4190    35.4780 hc         1 FVF       0.042200
     70 HD14        47.4220    22.3250    33.1490 ha         1 FVF       0.113500
     71 HD24        51.4530    20.9410    33.5020 ha         1 FVF       0.113500
     72 HE14        47.6930    22.5080    30.7030 ha         1 FVF       0.085000
     73 HE24        51.7370    21.1280    31.0560 ha         1 FVF       0.085000
     74 HZ4         49.8530    21.9040    29.6430 ha         1 FVF       0.080000
@<TRIPOS>BOND
     1     1     2 2   
     2     1     3 1   
     3     1    11 1   
     4     3     4 1   
     5     4     5 1   
     6     4    42 1   
     7     4    43 1   
     8     5     6 ar  
     9     5     7 ar  
    10     6     8 ar  
    11     6    44 1   
    12     7     9 ar  
    13     7    45 1   
    14     8    10 ar  
    15     8    46 1   
    16     9    10 ar  
    17     9    47 1   
    18    10    48 1   
    19    11    14 1   
    20    11    49 1   
    21    12    13 2   
    22    12    14 1   
    23    12    22 1   
    24    14    15 1   
    25    14    50 1   
    26    15    16 1   
    27    15    51 1   
    28    15    52 1   
    29    16    17 ar  
    30    16    18 ar  
    31    17    19 ar  
    32    17    53 1   
    33    18    20 ar  
    34    18    54 1   
    35    19    21 ar  
    36    19    55 1   
    37    20    21 ar  
    38    20    56 1   
    39    21    57 1   
    40    22    23 1   
    41    22    58 1   
    42    23    24 1   
    43    23    27 1   
    44    23    59 1   
    45    24    25 1   
    46    24    26 1   
    47    24    60 1   
    48    25    61 1   
    49    25    62 1   
    50    25    63 1   
    51    26    64 1   
    52    26    65 1   
    53    26    66 1   
    54    27    28 1   
    55    27    29 1   
    56    27    30 1   
    57    30    31 1   
    58    31    32 1   
    59    31    35 1   
    60    31    67 1   
    61    32    33 1   
    62    32    34 1   
    63    35    36 1   
    64    35    68 1   
    65    35    69 1   
    66    36    37 ar  
    67    36    38 ar  
    68    37    39 ar  
    69    37    70 1   
    70    38    40 ar  
    71    38    71 1   
    72    39    41 ar  
    73    39    72 1   
    74    40    41 ar  
    75    40    73 1   
    76    41    74 1   
@<TRIPOS>SUBSTRUCTURE
     1 FVF         1 TEMP              0 ****  ****    0 ROOT
