@<TRIPOS>MOLECULE
FVF
   74    76     1     0     0
SMALL
No Charge or Current Charge


@<TRIPOS>ATOM
      1 C1          51.2780    13.9460    38.2330 c          1 FVF       0.637100
      2 O1          51.7110    12.9100    38.7100 o          1 FVF      -0.600000
      3 OA1         51.7950    15.1920    38.4430 os         1 FVF      -0.429100
      4 CB1         52.9350    15.3030    39.3060 c3         1 FVF       0.232900
      5 CG1         53.3170    16.7740    39.4180 ca         1 FVF      -0.095300
      6 CDB         53.8330    17.4580    38.2990 ca         1 FVF      -0.077000
      7 CDC         53.1630    17.4610    40.6390 ca         1 FVF      -0.077000
      8 CEB         54.1950    18.8130    38.4020 ca         1 FVF      -0.110500
      9 CEC         53.5270    18.8150    40.7400 ca         1 FVF      -0.110500
     10 CZ1         54.0440    19.4910    39.6230 ca         1 FVF      -0.110000
     11 N2          50.1820    13.9870    37.4110 ns         1 FVF      -0.467900
     12 C2          48.8560    16.0610    37.8580 c          1 FVF       0.573100
     13 O2          48.2870    15.5740    38.8320 o          1 FVF      -0.690100
     14 CA2         49.6130    15.2110    36.7980 c3         1 FVF       0.038700
     15 CB2         48.6830    14.8430    35.6170 c3         1 FVF      -0.046100
     16 CG2         49.3970    14.0520    34.5260 ca         1 FVF      -0.054300
     17 CDL         49.1270    12.6810    34.3390 ca         1 FVF      -0.099500
     18 CDM         50.3380    14.6900    33.6940 ca         1 FVF      -0.099500
     19 CEL         49.7940    11.9580    33.3350 ca         1 FVF      -0.126500
     20 CEM         51.0050    13.9660    32.6900 ca         1 FVF      -0.126500
     21 CZ2         50.7340    12.5990    32.5110 ca         1 FVF      -0.138000
     22 N3          48.8650    17.4200    37.6100 ns         1 FVF      -0.438900
     23 CA3         48.2040    18.4760    38.4310 c3         1 FVF      -0.226300
     24 CB3         49.1670    19.1110    39.4880 c3         1 FVF      -0.038700
     25 CGD         50.4710    19.6950    38.8880 c3         1 FVF      -0.081600
     26 CGN         49.5040    18.1230    40.6300 c3         1 FVF      -0.081600
     27 P3          47.2140    19.6900    37.3900 p5         1 FVF       1.425400
     28 OPV         46.2250    18.9470    36.5490 o          1 FVF      -0.835500
     29 OPW         46.5540    20.7310    38.2390 o          1 FVF      -0.835500
     30 OPX         48.3950    20.3350    36.4930 os         1 FVF      -0.626400
     31 CA4         48.3310    20.3210    35.0420 c3         1 FVF       0.130300
     32 C4          48.7760    18.9470    34.4050 c          1 FVF       0.698000
     33 O4          49.5250    18.2120    35.0390 o          1 FVF      -0.745500
     34 O11         48.2870    18.6170    33.3320 o          1 FVF      -0.745500
     35 CB4         49.2330    21.4850    34.5650 c3         1 FVF      -0.039100
     36 CG4         49.0620    21.8130    33.0870 ca         1 FVF      -0.020300
     37 CD5         47.8990    22.4680    32.6370 ca         1 FVF      -0.096000
     38 CD6         50.0690    21.4770    32.1590 ca         1 FVF      -0.096000
     39 CE5         47.7420    22.7790    31.2750 ca         1 FVF      -0.122500
     40 CE6         49.9110    21.7890    30.7970 ca         1 FVF      -0.122500
     41 CZ4         48.7470    22.4400    30.3550 ca         1 FVF      -0.144000
     42 HB11        52.7060    14.9030    40.3020 h1         1 FVF       0.041200
     43 HB21        53.7850    14.7390    38.9000 h1         1 FVF       0.041200
     44 HD11        53.9520    16.9390    37.3510 ha         1 FVF       0.118500
     45 HD21        52.7620    16.9480    41.5100 ha         1 FVF       0.118500
     46 HE11        54.5910    19.3360    37.5350 ha         1 FVF       0.107500
     47 HE21        53.4050    19.3400    41.6850 ha         1 FVF       0.107500
     48 HZ1         54.3230    20.5400    39.7010 ha         1 FVF       0.098000
     49 HN2         49.7400    13.0970    37.2240 hn         1 FVF       0.321500
     50 HA2         50.4370    15.8280    36.4140 h1         1 FVF       0.113700
     51 HB12        47.8230    14.2800    36.0010 hc         1 FVF       0.083200
     52 HB22        48.2670    15.7620    35.1870 hc         1 FVF       0.083200
     53 HD12        48.4010    12.1740    34.9710 ha         1 FVF       0.135500
     54 HD22        50.5510    15.7490    33.8240 ha         1 FVF       0.135500
     55 HE12        49.5830    10.9000    33.1960 ha         1 FVF       0.094500
     56 HE22        51.7300    14.4650    32.0520 ha         1 FVF       0.094500
     57 HZ2         51.2490    12.0390    31.7350 ha         1 FVF       0.085000
     58 HN3         49.2920    17.7080    36.7240 hn         1 FVF       0.381500
     59 HA3         47.3840    18.0010    38.9820 h1         1 FVF       0.065700
     60 HB3         48.6290    19.9440    39.9570 hc         1 FVF       0.049700
     61 H113        51.0970    20.1210    39.6810 hc         1 FVF       0.022200
     62 H123        51.0550    18.9220    38.3760 hc         1 FVF       0.022200
     63 H133        50.2630    20.5010    38.1780 hc         1 FVF       0.022200
     64 H213        50.0760    18.6250    41.4190 hc         1 FVF       0.022200
     65 H223        48.5880    17.7230    41.0820 hc         1 FVF       0.022200
     66 H233        50.1040    17.2830    40.2610 hc         1 FVF       0.022200
     67 HA4         47.3040    20.5240    34.7070 h1         1 FVF       0.045700
     68 HB14        49.0000    22.3790    35.1560 hc         1 FVF       0.042200
     69 HB24        50.2780    21.2370    34.7880 hc         1 FVF       0.042200
     70 HD14        47.1170    22.7370    33.3430 ha         1 FVF       0.113500
     71 HD24        50.9720    20.9720    32.4920 ha         1 FVF       0.113500
     72 HE14        46.8410    23.2840    30.9340 ha         1 FVF       0.085000
     73 HE24        50.6900    21.5260    30.0860 ha         1 FVF       0.085000
     74 HZ4         48.6260    22.6810    29.3020 ha         1 FVF       0.080000
@<TRIPOS>BOND
     1     1     2 2   
     2     1     3 1   
     3     1    11 1   
     4     3     4 1   
     5     4     5 1   
     6     4    42 1   
     7     4    43 1   
     8     5     6 ar  
     9     5     7 ar  
    10     6     8 ar  
    11     6    44 1   
    12     7     9 ar  
    13     7    45 1   
    14     8    10 ar  
    15     8    46 1   
    16     9    10 ar  
    17     9    47 1   
    18    10    48 1   
    19    11    14 1   
    20    11    49 1   
    21    12    13 2   
    22    12    14 1   
    23    12    22 1   
    24    14    15 1   
    25    14    50 1   
    26    15    16 1   
    27    15    51 1   
    28    15    52 1   
    29    16    17 ar  
    30    16    18 ar  
    31    17    19 ar  
    32    17    53 1   
    33    18    20 ar  
    34    18    54 1   
    35    19    21 ar  
    36    19    55 1   
    37    20    21 ar  
    38    20    56 1   
    39    21    57 1   
    40    22    23 1   
    41    22    58 1   
    42    23    24 1   
    43    23    27 1   
    44    23    59 1   
    45    24    25 1   
    46    24    26 1   
    47    24    60 1   
    48    25    61 1   
    49    25    62 1   
    50    25    63 1   
    51    26    64 1   
    52    26    65 1   
    53    26    66 1   
    54    27    28 1   
    55    27    29 1   
    56    27    30 1   
    57    30    31 1   
    58    31    32 1   
    59    31    35 1   
    60    31    67 1   
    61    32    33 1   
    62    32    34 1   
    63    35    36 1   
    64    35    68 1   
    65    35    69 1   
    66    36    37 ar  
    67    36    38 ar  
    68    37    39 ar  
    69    37    70 1   
    70    38    40 ar  
    71    38    71 1   
    72    39    41 ar  
    73    39    72 1   
    74    40    41 ar  
    75    40    73 1   
    76    41    74 1   
@<TRIPOS>SUBSTRUCTURE
     1 FVF         1 TEMP              0 ****  ****    0 ROOT
