@<TRIPOS>MOLECULE
FVG
   65    69     1     0     0
SMALL
No Charge or Current Charge


@<TRIPOS>ATOM
      1 N1          -0.9390     1.6450     0.1110 nc         1 FVG      -0.601100
      2 N3          -5.2840    -0.3700    -1.5770 n8         1 FVG      -0.981200
      3 C4           1.9190     0.3170    -1.8550 c3         1 FVG       0.137900
      4 C5           0.1980     1.7870    -0.5790 cd         1 FVG       0.587700
      5 C6          -1.3350     0.3510    -0.2540 ca         1 FVG       0.019400
      6 C7          -2.4870    -0.3870     0.1510 ca         1 FVG       0.427000
      7 C8          -2.6400    -1.6990    -0.3450 ca         1 FVG      -0.215000
      8 C10         -0.5780    -1.5050    -1.6370 ca         1 FVG      -0.169000
      9 C13         -4.2680     0.5080     3.2220 c5         1 FVG      -0.105400
     10 C15         -4.9150    -0.0560     0.9650 c5         1 FVG       0.231500
     11 C17          0.9280     3.7500     0.7900 c6         1 FVG       0.195300
     12 C20          1.3310     3.7250    -1.6610 c6         1 FVG       0.195300
     13 C21          3.0740    -1.8890    -1.3320 ca         1 FVG      -0.069000
     14 C22          3.7570    -2.7520    -0.4530 ca         1 FVG      -0.113800
     15 C24          4.0370    -2.3200     0.8600 ca         1 FVG       0.173000
     16 N            0.5830     0.6870    -1.3550 na         1 FVG      -0.183600
     17 C1           3.6440    -1.0380     1.2960 ca         1 FVG      -0.113800
     18 C11         -0.4270    -0.2100    -1.1220 ca         1 FVG      -0.024200
     19 C12         -3.0280     0.7880     2.3400 c5         1 FVG       0.227800
     20 C14         -5.4050     0.7560     2.2010 c5         1 FVG      -0.093400
     21 C16         -5.5740     0.4510    -0.3690 c3         1 FVG       0.141800
     22 C18          2.2110     4.6260     0.9790 c6         1 FVG       0.153300
     23 C19          2.6160     4.5910    -1.4510 c6         1 FVG       0.153300
     24 C2           2.9620    -0.1880     0.4060 ca         1 FVG      -0.069000
     25 C23          4.1830    -4.1390    -0.9200 c3         1 FVG      -0.039800
     26 C3           2.6720    -0.6090    -0.9060 ca         1 FVG      -0.128300
     27 C9          -1.6980    -2.2480    -1.2340 ca         1 FVG       0.188000
     28 N2          -3.4330     0.1320     1.0730 nh         1 FVG      -0.805400
     29 N4           1.0020     2.9160    -0.4480 nh         1 FVG      -0.714600
     30 N5           2.5420     5.4410    -0.2270 n7         1 FVG      -0.863400
     31 Cl          -1.9190    -3.8840    -1.8370 cl         1 FVG      -0.228000
     32 H1          -5.6640    -1.3130    -1.4440 hn         1 FVG       0.391000
     33 H2          -5.8200    -0.0000    -2.3710 hn         1 FVG       0.391000
     34 H4           1.8040    -0.1590    -2.8370 h1         1 FVG       0.065700
     35 H5           2.5170     1.2240    -2.0020 h1         1 FVG       0.065700
     36 H6          -3.4880    -2.2980    -0.0370 ha         1 FVG       0.122000
     37 H7           0.1490    -1.9320    -2.3210 ha         1 FVG       0.129000
     38 H8          -4.2740    -0.5240     3.5920 hc         1 FVG       0.052200
     39 H9          -4.3210     1.1740     4.0910 hc         1 FVG       0.052200
     40 H10         -5.1750    -1.1150     1.1030 h1         1 FVG       0.045700
     41 H11          0.8060     3.1110     1.6770 h1         1 FVG       0.053200
     42 H12          0.0490     4.4100     0.7420 h1         1 FVG       0.053200
     43 H13          0.4900     4.3950    -1.8920 h1         1 FVG       0.053200
     44 H14          1.4710     3.0820    -2.5420 h1         1 FVG       0.053200
     45 H15          2.8520    -2.2160    -2.3460 ha         1 FVG       0.122500
     46 H16          5.0280    -0.5710     2.9040 hc         1 FVG       0.047033
     47 H17          3.5780     0.4420     2.9010 hc         1 FVG       0.047033
     48 H18          3.4800    -1.2360     3.4540 hc         1 FVG       0.047033
     49 H19         -2.8670     1.8660     2.1990 h1         1 FVG       0.061700
     50 H20         -2.1160     0.3510     2.7720 h1         1 FVG       0.061700
     51 H21         -6.3800     0.4120     2.5630 hc         1 FVG       0.050200
     52 H22         -5.5010     1.8240     1.9710 hc         1 FVG       0.050200
     53 H23         -5.2460     1.4820    -0.5600 h1         1 FVG       0.032700
     54 H24         -6.6640     0.4670    -0.2310 h1         1 FVG       0.032700
     55 H25          2.0770     5.2880     1.8470 h1         1 FVG       0.037200
     56 H26          3.0580     3.9600     1.2030 h1         1 FVG       0.037200
     57 H27          3.4830     3.9180    -1.3690 h1         1 FVG       0.037200
     58 H28          2.7760     5.2280    -2.3320 h1         1 FVG       0.037200
     59 H29          2.6550     0.8030     0.7340 ha         1 FVG       0.122500
     60 H30          3.7210    -4.9190    -0.3030 hc         1 FVG       0.047033
     61 H31          3.8950    -4.3270    -1.9610 hc         1 FVG       0.047033
     62 H32          5.2710    -4.2580    -0.8520 hc         1 FVG       0.047033
     63 H33          3.4490     5.9050    -0.0820 hn         1 FVG       0.415000
     64 F            4.6920    -3.1450     1.7110 f          1 FVG      -0.183000
     65 C            3.9480    -0.5730     2.7150 c3         1 FVG      -0.039800
@<TRIPOS>BOND
     1     1     4 2   
     2     1     5 1   
     3     2    21 1   
     4     2    32 1   
     5     2    33 1   
     6     3    16 1   
     7     3    26 1   
     8     3    34 1   
     9     3    35 1   
    10     4    16 1   
    11     4    29 1   
    12     5     6 ar  
    13     5    18 ar  
    14     6     7 ar  
    15     6    28 1   
    16     7    27 ar  
    17     7    36 1   
    18     8    18 ar  
    19     8    27 ar  
    20     8    37 1   
    21     9    19 1   
    22     9    20 1   
    23     9    38 1   
    24     9    39 1   
    25    10    20 1   
    26    10    21 1   
    27    10    28 1   
    28    10    40 1   
    29    11    22 1   
    30    11    29 1   
    31    11    41 1   
    32    11    42 1   
    33    12    23 1   
    34    12    29 1   
    35    12    43 1   
    36    12    44 1   
    37    13    14 ar  
    38    13    26 ar  
    39    13    45 1   
    40    14    15 ar  
    41    14    25 1   
    42    15    17 ar  
    43    15    64 1   
    44    16    18 1   
    45    17    24 ar  
    46    17    65 1   
    47    19    28 1   
    48    19    49 1   
    49    19    50 1   
    50    20    51 1   
    51    20    52 1   
    52    21    53 1   
    53    21    54 1   
    54    22    30 1   
    55    22    55 1   
    56    22    56 1   
    57    23    30 1   
    58    23    57 1   
    59    23    58 1   
    60    24    26 ar  
    61    24    59 1   
    62    25    60 1   
    63    25    61 1   
    64    25    62 1   
    65    27    31 1   
    66    30    63 1   
    67    46    65 1   
    68    47    65 1   
    69    48    65 1   
@<TRIPOS>SUBSTRUCTURE
     1 FVG         1 TEMP              0 ****  ****    0 ROOT
