@<TRIPOS>MOLECULE
FVG
   65    69     1     0     0
SMALL
bcc


@<TRIPOS>ATOM
      1 N1          -0.8800     1.5710     0.0090 nc         1 FVG      -0.601100
      2 N3          -5.5380     0.0190    -1.5430 n8         1 FVG      -0.870800
      3 C4           1.9570     0.2700    -1.8070 c3         1 FVG       0.108600
      4 C5           0.2990     1.6830    -0.5270 cd         1 FVG       0.587700
      5 C6          -1.3590     0.3460    -0.4030 ca         1 FVG       0.019400
      6 C7          -2.6000    -0.2700    -0.1340 ca         1 FVG       0.288600
      7 C8          -2.8170    -1.4970    -0.7790 ca         1 FVG      -0.233000
      8 C10         -0.6240    -1.4900    -1.8720 ca         1 FVG      -0.187000
      9 C13         -3.9810     0.5030     2.9890 c5         1 FVG      -0.105400
     10 C15         -4.8850    -0.1770     0.8510 c5         1 FVG       0.231500
     11 C17          1.0470     3.4660     0.8900 c6         1 FVG       0.195300
     12 C20          1.3400     3.6220    -1.5060 c6         1 FVG       0.195300
     13 C21          2.8940    -1.9390    -1.0480 ca         1 FVG      -0.087000
     14 C22          3.5750    -2.7450    -0.1390 ca         1 FVG      -0.113800
     15 C24          4.0780    -2.1230     0.9910 ca         1 FVG       0.137900
     16 N            0.6380     0.6040    -1.3040 na         1 FVG      -0.154300
     17 C1           3.9460    -0.7690     1.2600 ca         1 FVG      -0.113800
     18 C11         -0.4210    -0.2680    -1.2410 ca         1 FVG      -0.024200
     19 C12         -3.0990     1.0650     1.8850 c5         1 FVG       0.227800
     20 C14         -5.2960     0.2520     2.2670 c5         1 FVG      -0.093400
     21 C16         -5.8480     0.4050    -0.1790 c3         1 FVG       0.141800
     22 C18          2.2730     4.3420     1.0750 c6         1 FVG       0.153300
     23 C19          2.5580     4.4980    -1.2940 c6         1 FVG       0.153300
     24 C2           3.2600    -0.0070     0.3220 ca         1 FVG      -0.087000
     25 C23          3.7630    -4.2150    -0.3660 c3         1 FVG      -0.039800
     26 C3           2.7290    -0.5780    -0.8300 ca         1 FVG      -0.128300
     27 C9          -1.8530    -2.0630    -1.6080 ca         1 FVG       0.096400
     28 N2          -3.5140     0.3090     0.7040 nh         1 FVG      -0.667000
     29 N4           1.1800     2.7290    -0.3580 nh         1 FVG      -0.714600
     30 N5           2.4050     5.2390    -0.0570 n7         1 FVG      -0.808200
     31 CL          -2.2230    -3.5970    -2.3480 cl         1 FVG      -0.136400
     32 H1          -5.6850    -0.9760    -1.6570 hn         1 FVG       0.335800
     33 H2          -6.2010     0.4620    -2.1680 hn         1 FVG       0.335800
     34 H4           1.8400    -0.2470    -2.7600 h1         1 FVG       0.065700
     35 H5           2.4900     1.1940    -2.0210 h1         1 FVG       0.065700
     36 H6          -3.7440    -2.0320    -0.6390 ha         1 FVG       0.140000
     37 H7           0.0990    -1.9520    -2.5280 ha         1 FVG       0.147000
     38 H8          -3.5590    -0.4340     3.3580 hc         1 FVG       0.052200
     39 H9          -4.0790     1.1840     3.8340 hc         1 FVG       0.052200
     40 H10         -4.9100    -1.2720     0.7900 h1         1 FVG       0.045700
     41 H11          0.9700     2.7580     1.7160 h1         1 FVG       0.053200
     42 H12          0.1420     4.0880     0.8990 h1         1 FVG       0.053200
     43 H13          0.4480     4.2530    -1.6290 h1         1 FVG       0.053200
     44 H14          1.4560     3.0410    -2.4210 h1         1 FVG       0.053200
     45 H15          2.4890    -2.3950    -1.9440 ha         1 FVG       0.140500
     46 H16          5.6010    -0.3130     2.5670 hc         1 FVG       0.047033
     47 H17          4.3310     0.9050     2.5370 hc         1 FVG       0.047033
     48 H18          4.0850    -0.6050     3.4050 hc         1 FVG       0.047033
     49 H19         -3.2710     2.1380     1.7540 h1         1 FVG       0.061700
     50 H20         -2.0400     0.9310     2.0860 h1         1 FVG       0.061700
     51 H21         -5.9180    -0.5010     2.7500 hc         1 FVG       0.050200
     52 H22         -5.8820     1.1750     2.2240 hc         1 FVG       0.050200
     53 H23         -5.7930     1.4950    -0.1090 h1         1 FVG       0.032700
     54 H24         -6.8640     0.1250     0.1390 h1         1 FVG       0.032700
     55 H25          2.1610     4.9270     1.9890 h1         1 FVG       0.037200
     56 H26          3.1530     3.6910     1.2070 h1         1 FVG       0.037200
     57 H27          3.4560     3.8600    -1.3050 h1         1 FVG       0.037200
     58 H28          2.6430     5.1980    -2.1270 h1         1 FVG       0.037200
     59 H29          3.1390     1.0570     0.4960 ha         1 FVG       0.140500
     60 H30          3.3690    -4.8080     0.4610 hc         1 FVG       0.047033
     61 H31          3.2500    -4.5300    -1.2730 hc         1 FVG       0.047033
     62 H32          4.8170    -4.4730    -0.4740 hc         1 FVG       0.047033
     63 H33          3.1990     5.8510     0.0780 hn         1 FVG       0.359800
     64 F            4.7430    -2.8810     1.8860 f          1 FVG      -0.147900
     65 C            4.5220    -0.1660     2.5070 c3         1 FVG      -0.039800
@<TRIPOS>BOND
     1     1     4 2   
     2     1     5 1   
     3     2    21 1   
     4     2    32 1   
     5     2    33 1   
     6     3    16 1   
     7     3    26 1   
     8     3    34 1   
     9     3    35 1   
    10     4    16 1   
    11     4    29 1   
    12     5     6 ar  
    13     5    18 ar  
    14     6     7 ar  
    15     6    28 1   
    16     7    27 ar  
    17     7    36 1   
    18     8    18 ar  
    19     8    27 ar  
    20     8    37 1   
    21     9    19 1   
    22     9    20 1   
    23     9    38 1   
    24     9    39 1   
    25    10    20 1   
    26    10    21 1   
    27    10    28 1   
    28    10    40 1   
    29    11    22 1   
    30    11    29 1   
    31    11    41 1   
    32    11    42 1   
    33    12    23 1   
    34    12    29 1   
    35    12    43 1   
    36    12    44 1   
    37    13    14 ar  
    38    13    26 ar  
    39    13    45 1   
    40    14    15 ar  
    41    14    25 1   
    42    15    17 ar  
    43    15    64 1   
    44    16    18 1   
    45    17    24 ar  
    46    17    65 1   
    47    19    28 1   
    48    19    49 1   
    49    19    50 1   
    50    20    51 1   
    51    20    52 1   
    52    21    53 1   
    53    21    54 1   
    54    22    30 1   
    55    22    55 1   
    56    22    56 1   
    57    23    30 1   
    58    23    57 1   
    59    23    58 1   
    60    24    26 ar  
    61    24    59 1   
    62    25    60 1   
    63    25    61 1   
    64    25    62 1   
    65    27    31 1   
    66    30    63 1   
    67    46    65 1   
    68    47    65 1   
    69    48    65 1   
@<TRIPOS>SUBSTRUCTURE
     1 FVG         1 TEMP              0 ****  ****    0 ROOT
