@<TRIPOS>MOLECULE
FVJ
   61    65     1     0     0
SMALL
No Charge or Current Charge


@<TRIPOS>ATOM
      1 N1           1.2230     1.4480    -0.2760 nc         1 FVJ      -0.604100
      2 N3           4.8960     0.6260     2.8020 na         1 FVJ      -0.006200
      3 C4          -1.7760    -0.0470    -1.8730 c3         1 FVJ       0.136900
      4 C5           0.1070     1.5190    -1.0080 cd         1 FVJ       0.613700
      5 C6           1.4810     0.0810    -0.2760 ca         1 FVJ       0.093400
      6 C7           2.5300    -0.6170     0.3760 ca         1 FVJ       0.078000
      7 C8           2.5130    -2.0320     0.2990 ca         1 FVJ      -0.127000
      8 C10          0.4800    -2.0010    -1.0520 ca         1 FVJ      -0.108000
      9 C13          4.2900     1.2800     0.8770 cc         1 FVJ       0.299300
     10 C15          3.9710    -0.3360     2.3770 cd         1 FVJ      -0.118300
     11 C17         -0.3650     3.8580    -0.2600 c6         1 FVJ       0.198800
     12 C20         -0.8030     3.1910    -2.6120 c6         1 FVJ       0.198800
     13 C21         -2.7890     0.0980     0.4550 ca         1 FVJ      -0.070000
     14 C22         -3.5440    -0.4360     1.5150 ca         1 FVJ      -0.111800
     15 C24         -4.1260    -1.7120     1.3710 ca         1 FVJ       0.175000
     16 N           -0.4030     0.2970    -1.4610 na         1 FVJ      -0.187600
     17 C1          -3.9600    -2.4500     0.1810 ca         1 FVJ      -0.111800
     18 C11          0.5010    -0.6030    -0.9600 ca         1 FVJ      -0.068200
     19 C12          3.6100     0.0620     1.1160 cc         1 FVJ      -0.159000
     20 C16          3.4890    -1.4650     3.2580 c3         1 FVJ      -0.034800
     21 C18         -1.5240     4.9040    -0.3540 c6         1 FVJ       0.152800
     22 C19         -1.9650     4.2350    -2.6830 c6         1 FVJ       0.152800
     23 C2          -3.2020    -1.9020    -0.8710 ca         1 FVJ      -0.070000
     24 C23         -3.7260     0.3600     2.8020 c3         1 FVJ      -0.040300
     25 C3          -2.6110    -0.6310    -0.7370 ca         1 FVJ      -0.131300
     26 C9           1.5030    -2.7140    -0.4080 ca         1 FVJ       0.132000
     27 N2           5.0940     1.6340     1.8620 nd         1 FVJ      -0.530800
     28 N4          -0.5610     2.7230    -1.2130 nh         1 FVJ      -0.724600
     29 N5          -1.7670     5.3800    -1.7470 n7         1 FVJ      -0.862400
     30 Cl           1.5260    -4.4710    -0.4880 cl         1 FVJ      -0.213000
     31 H1           5.3800     0.6360     3.7000 hn         1 FVJ       0.368000
     32 H2          -2.2810     0.8510    -2.2470 h1         1 FVJ       0.066700
     33 H3          -1.7200    -0.7600    -2.7050 h1         1 FVJ       0.066700
     34 H4           3.3060    -2.6100     0.7620 ha         1 FVJ       0.130000
     35 H5          -0.3030    -2.5250    -1.5930 ha         1 FVJ       0.130000
     36 H6           0.5890     4.3620    -0.4720 h1         1 FVJ       0.055200
     37 H7          -0.3120     3.4860     0.7740 h1         1 FVJ       0.055200
     38 H8          -1.0360     2.3490    -3.2790 h1         1 FVJ       0.055200
     39 H9           0.1120     3.6580    -3.0050 h1         1 FVJ       0.055200
     40 H10         -2.3370     1.0830     0.5570 ha         1 FVJ       0.122000
     41 H11         -5.6810    -3.7760     0.1350 hc         1 FVJ       0.047867
     42 H12         -4.3740    -4.2750    -0.9470 hc         1 FVJ       0.047867
     43 H13         -4.2150    -4.5190     0.7970 hc         1 FVJ       0.047867
     44 H14          3.8830     1.4370    -1.2390 hc         1 FVJ       0.051033
     45 H15          3.5600     2.9210    -0.3110 hc         1 FVJ       0.051033
     46 H16          5.2230     2.4400    -0.6770 hc         1 FVJ       0.051033
     47 H17          3.6360    -1.2310     4.3190 hc         1 FVJ       0.053033
     48 H18          2.4190    -1.6570     3.1130 hc         1 FVJ       0.053033
     49 H19          4.0340    -2.3920     3.0470 hc         1 FVJ       0.053033
     50 H20         -2.4450     4.4400     0.0310 h1         1 FVJ       0.038450
     51 H21         -1.2960     5.7620     0.2950 h1         1 FVJ       0.038450
     52 H22         -2.0570     4.6120    -3.7120 h1         1 FVJ       0.038450
     53 H23         -2.9090     3.7270    -2.4340 h1         1 FVJ       0.038450
     54 H24         -3.0670    -2.4660    -1.7910 ha         1 FVJ       0.122000
     55 H25         -3.3240    -0.1890     3.6620 hc         1 FVJ       0.047867
     56 H26         -3.2130     1.3280     2.7590 hc         1 FVJ       0.047867
     57 H27         -4.7870     0.5560     2.9950 hc         1 FVJ       0.047867
     58 H28         -2.6060     5.9760    -1.7590 hn         1 FVJ       0.416000
     59 C14          4.2310     2.0600    -0.4080 c3         1 FVJ      -0.123400
     60 F           -4.8530    -2.2340     2.3870 f          1 FVJ      -0.181000
     61 C           -4.5910    -3.8300     0.0310 c3         1 FVJ      -0.040300
@<TRIPOS>BOND
     1     1     4 2   
     2     1     5 1   
     3     2    10 1   
     4     2    27 1   
     5     2    31 1   
     6     3    16 1   
     7     3    25 1   
     8     3    32 1   
     9     3    33 1   
    10     4    16 1   
    11     4    28 1   
    12     5     6 ar  
    13     5    18 ar  
    14     6     7 ar  
    15     6    19 1   
    16     7    26 ar  
    17     7    34 1   
    18     8    18 ar  
    19     8    26 ar  
    20     8    35 1   
    21     9    19 1   
    22     9    27 2   
    23     9    59 1   
    24    10    19 2   
    25    10    20 1   
    26    11    21 1   
    27    11    28 1   
    28    11    36 1   
    29    11    37 1   
    30    12    22 1   
    31    12    28 1   
    32    12    38 1   
    33    12    39 1   
    34    13    14 ar  
    35    13    25 ar  
    36    13    40 1   
    37    14    15 ar  
    38    14    24 1   
    39    15    17 ar  
    40    15    60 1   
    41    16    18 1   
    42    17    23 ar  
    43    17    61 1   
    44    20    47 1   
    45    20    48 1   
    46    20    49 1   
    47    21    29 1   
    48    21    50 1   
    49    21    51 1   
    50    22    29 1   
    51    22    52 1   
    52    22    53 1   
    53    23    25 ar  
    54    23    54 1   
    55    24    55 1   
    56    24    56 1   
    57    24    57 1   
    58    26    30 1   
    59    29    58 1   
    60    41    61 1   
    61    42    61 1   
    62    43    61 1   
    63    44    59 1   
    64    45    59 1   
    65    46    59 1   
@<TRIPOS>SUBSTRUCTURE
     1 FVJ         1 TEMP              0 ****  ****    0 ROOT
