@<TRIPOS>MOLECULE
FVJ
   61    65     1     0     0
SMALL
bcc


@<TRIPOS>ATOM
      1 N1           1.1490     1.3210    -0.1690 nc         1 FVJ      -0.604100
      2 N3           5.0390     0.5610     2.6170 na         1 FVJ      -0.006600
      3 C4          -1.7300    -0.0620    -1.8670 c3         1 FVJ       0.107600
      4 C5           0.0360     1.4340    -0.8390 cd         1 FVJ       0.613700
      5 C6           1.4850    -0.0070    -0.2420 ca         1 FVJ       0.093400
      6 C7           2.5830    -0.6790     0.3010 ca         1 FVJ       0.078000
      7 C8           2.6500    -2.0550     0.0810 ca         1 FVJ      -0.145000
      8 C10          0.5770    -2.0690    -1.2090 ca         1 FVJ      -0.126000
      9 C13          4.3660     1.1580     0.7100 cc         1 FVJ       0.364600
     10 C15          4.0920    -0.3430     2.3230 cd         1 FVJ      -0.067600
     11 C17         -0.4530     3.6280    -0.0040 c6         1 FVJ       0.198800
     12 C20         -0.8040     3.1370    -2.3450 c6         1 FVJ       0.198800
     13 C21         -3.1070     0.3390     0.1960 ca         1 FVJ      -0.088000
     14 C22         -3.9400    -0.0800     1.2250 ca         1 FVJ      -0.111800
     15 C24         -4.2980    -1.4210     1.2350 ca         1 FVJ       0.139900
     16 N           -0.4000     0.2440    -1.3700 na         1 FVJ      -0.158300
     17 C1          -3.8800    -2.3450     0.2920 ca         1 FVJ      -0.111800
     18 C11          0.5210    -0.7020    -0.9890 ca         1 FVJ      -0.068200
     19 C12          3.6140     0.0130     1.0730 cc         1 FVJ      -0.224300
     20 C16          3.7150    -1.4460     3.2460 c3         1 FVJ      -0.034800
     21 C18         -1.5890     4.6320    -0.0660 c6         1 FVJ       0.152800
     22 C19         -1.9360     4.1430    -2.3800 c6         1 FVJ       0.152800
     23 C2          -3.0420    -1.8770    -0.7170 ca         1 FVJ      -0.088000
     24 C23         -4.4390     0.8640     2.2770 c3         1 FVJ      -0.040300
     25 C3          -2.6480    -0.5470    -0.7750 ca         1 FVJ      -0.131300
     26 C9           1.6640    -2.7180    -0.6490 ca         1 FVJ       0.040400
     27 N2           5.2260     1.4690     1.6590 nd         1 FVJ      -0.530800
     28 N4          -0.6920     2.5860    -0.9940 nh         1 FVJ      -0.724600
     29 N5          -1.6830     5.1850    -1.4040 n7         1 FVJ      -0.807200
     30 CL           1.8150    -4.4350    -0.8750 cl         1 FVJ      -0.121400
     31 H1           5.5860     0.6080     3.4620 hn         1 FVJ       0.317700
     32 H2          -2.1410     0.8300    -2.3340 h1         1 FVJ       0.066700
     33 H3          -1.6370    -0.8090    -2.6560 h1         1 FVJ       0.066700
     34 H4           3.4910    -2.6150     0.4660 ha         1 FVJ       0.148000
     35 H5          -0.1700    -2.6060    -1.7770 ha         1 FVJ       0.148000
     36 H6           0.5050     4.1340    -0.1800 h1         1 FVJ       0.055200
     37 H7          -0.4130     3.1780     0.9870 h1         1 FVJ       0.055200
     38 H8          -0.9900     2.3450    -3.0700 h1         1 FVJ       0.055200
     39 H9           0.1370     3.6250    -2.6340 h1         1 FVJ       0.055200
     40 H10         -2.8160     1.3820     0.1470 ha         1 FVJ       0.140000
     41 H11         -5.4010    -3.8720     0.2810 hc         1 FVJ       0.047867
     42 H12         -3.8730    -4.3520    -0.4490 hc         1 FVJ       0.047867
     43 H13         -4.0210    -4.2450     1.3020 hc         1 FVJ       0.047867
     44 H14          4.3060     1.2930    -1.4260 hc         1 FVJ       0.051033
     45 H15          3.3650     2.5200    -0.6010 hc         1 FVJ       0.051033
     46 H16          5.1330     2.6330    -0.6260 hc         1 FVJ       0.051033
     47 H17          3.7170    -1.1110     4.2830 hc         1 FVJ       0.053033
     48 H18          2.7190    -1.8170     3.0120 hc         1 FVJ       0.053033
     49 H19          4.4080    -2.2860     3.1710 hc         1 FVJ       0.053033
     50 H20         -2.5160     4.1310     0.2550 h1         1 FVJ       0.038450
     51 H21         -1.3900     5.4360     0.6450 h1         1 FVJ       0.038450
     52 H22         -1.9900     4.5860    -3.3760 h1         1 FVJ       0.038450
     53 H23         -2.8840     3.6100    -2.2040 h1         1 FVJ       0.038450
     54 H24         -2.7000    -2.5730    -1.4750 ha         1 FVJ       0.140000
     55 H25         -4.0880     0.5800     3.2700 hc         1 FVJ       0.047867
     56 H26         -4.0880     1.8760     2.0790 hc         1 FVJ       0.047867
     57 H27         -5.5280     0.8920     2.3130 hc         1 FVJ       0.047867
     58 H28         -2.4190     5.8760    -1.4400 hn         1 FVJ       0.360800
     59 C14          4.2910     1.9460    -0.5520 c3         1 FVJ      -0.123400
     60 F           -5.1090    -1.8490     2.2220 f          1 FVJ      -0.145900
     61 C           -4.3170    -3.7770     0.3620 c3         1 FVJ      -0.040300
@<TRIPOS>BOND
     1     1     4 2   
     2     1     5 1   
     3     2    10 1   
     4     2    27 1   
     5     2    31 1   
     6     3    16 1   
     7     3    25 1   
     8     3    32 1   
     9     3    33 1   
    10     4    16 1   
    11     4    28 1   
    12     5     6 ar  
    13     5    18 ar  
    14     6     7 ar  
    15     6    19 1   
    16     7    26 ar  
    17     7    34 1   
    18     8    18 ar  
    19     8    26 ar  
    20     8    35 1   
    21     9    19 1   
    22     9    27 2   
    23     9    59 1   
    24    10    19 2   
    25    10    20 1   
    26    11    21 1   
    27    11    28 1   
    28    11    36 1   
    29    11    37 1   
    30    12    22 1   
    31    12    28 1   
    32    12    38 1   
    33    12    39 1   
    34    13    14 ar  
    35    13    25 ar  
    36    13    40 1   
    37    14    15 ar  
    38    14    24 1   
    39    15    17 ar  
    40    15    60 1   
    41    16    18 1   
    42    17    23 ar  
    43    17    61 1   
    44    20    47 1   
    45    20    48 1   
    46    20    49 1   
    47    21    29 1   
    48    21    50 1   
    49    21    51 1   
    50    22    29 1   
    51    22    52 1   
    52    22    53 1   
    53    23    25 ar  
    54    23    54 1   
    55    24    55 1   
    56    24    56 1   
    57    24    57 1   
    58    26    30 1   
    59    29    58 1   
    60    41    61 1   
    61    42    61 1   
    62    43    61 1   
    63    44    59 1   
    64    45    59 1   
    65    46    59 1   
@<TRIPOS>SUBSTRUCTURE
     1 FVJ         1 TEMP              0 ****  ****    0 ROOT
