@<TRIPOS>MOLECULE
FVK
   49    50     1     0     0
SMALL
No Charge or Current Charge


@<TRIPOS>ATOM
      1 C4           7.7320     0.6800    -0.1140 c6         1 FVK       0.060000
      2 C5           5.2330     0.9190    -0.0430 c          1 FVK       0.653100
      3 C6           2.7270     0.9780    -0.1660 c3         1 FVK       0.116000
      4 C3           8.9150    -0.2490     0.2570 c6         1 FVK       0.143100
      5 C1           6.2640    -1.4100    -0.0900 c6         1 FVK       0.060000
      6 C2           7.5480    -2.2020     0.2710 c6         1 FVK       0.143100
      7 O2           5.3210     2.1360    -0.0860 o          1 FVK      -0.637100
      8 O5          -2.2450     1.5490     1.0470 oh         1 FVK      -0.636000
      9 O4          -9.9480    -1.0900     0.1180 oh         1 FVK      -0.535100
     10 O3          -4.6840     0.7030    -0.0020 os         1 FVK      -0.331100
     11 O1           8.7140    -1.5660    -0.2820 os         1 FVK      -0.443000
     12 N1           6.3650     0.0840     0.0450 n          1 FVK      -0.412800
     13 N2           4.0170     0.2850    -0.0760 ns         1 FVK      -0.529900
     14 C7           1.5270     0.0010    -0.1230 c3         1 FVK       0.140800
     15 N3           0.2410     0.7240    -0.2170 n7         1 FVK      -0.850400
     16 C8          -0.9670    -0.1320    -0.2150 c3         1 FVK       0.128800
     17 C9          -2.2640     0.7210    -0.1380 c3         1 FVK       0.162300
     18 C10         -3.5370    -0.1600    -0.1450 c3         1 FVK       0.131600
     19 C11         -5.9740     0.2140     0.0230 ca         1 FVK       0.104100
     20 C12         -6.2690    -1.1650    -0.0840 ca         1 FVK      -0.131500
     21 C13         -7.6070    -1.6030    -0.0520 ca         1 FVK      -0.138000
     22 C14         -8.6500    -0.6720     0.0860 ca         1 FVK       0.104100
     23 C15         -8.3600     0.6970     0.1920 ca         1 FVK      -0.138000
     24 C16         -7.0240     1.1380     0.1610 ca         1 FVK      -0.131500
     25 H1           7.8050     1.5910     0.4960 h1         1 FVK       0.053700
     26 H2           7.8500     0.9890    -1.1620 h1         1 FVK       0.053700
     27 H3           2.6490     1.6870     0.6690 h1         1 FVK       0.061200
     28 H4           2.6980     1.5480    -1.1040 h1         1 FVK       0.061200
     29 H5           9.8540     0.1660    -0.1360 h1         1 FVK       0.053950
     30 H6           9.0080    -0.3170     1.3510 h1         1 FVK       0.053950
     31 H7           5.9930    -1.6440    -1.1290 h1         1 FVK       0.053700
     32 H8           5.4530    -1.7850     0.5500 h1         1 FVK       0.053700
     33 H9           7.6560    -2.2600     1.3640 h1         1 FVK       0.053950
     34 H10          7.4760    -3.2280    -0.1150 h1         1 FVK       0.053950
     35 H11         -3.1690     1.8580     1.1720 ho         1 FVK       0.434000
     36 H12         -9.9650    -2.0680     0.0320 ho         1 FVK       0.462000
     37 H13          4.0260    -0.7240    -0.0380 hn         1 FVK       0.309500
     38 H14          1.6230    -0.7080    -0.9560 h1         1 FVK       0.028700
     39 H15          1.5720    -0.5740     0.8120 h1         1 FVK       0.028700
     40 H16          0.1560     1.3530     0.5940 hn         1 FVK       0.425000
     41 H18         -0.9950    -0.7500    -1.1230 h1         1 FVK       0.031700
     42 H19         -0.9470    -0.8140     0.6470 h1         1 FVK       0.031700
     43 H20         -2.2980     1.3530    -1.0370 h1         1 FVK       0.105700
     44 H21         -3.4890    -0.8790     0.6830 h1         1 FVK       0.034700
     45 H22         -3.5870    -0.7170    -1.0890 h1         1 FVK       0.034700
     46 H23         -5.4800    -1.9040    -0.1920 ha         1 FVK       0.123000
     47 H24         -7.8240    -2.6660    -0.1350 ha         1 FVK       0.121000
     48 H25         -9.1670     1.4170     0.2990 ha         1 FVK       0.121000
     49 H26         -6.8010     2.1990     0.2430 ha         1 FVK       0.123000
@<TRIPOS>BOND
     1     1     4 1   
     2     1    12 1   
     3     1    25 1   
     4     1    26 1   
     5     2     7 2   
     6     2    12 1   
     7     2    13 1   
     8     3    13 1   
     9     3    14 1   
    10     3    27 1   
    11     3    28 1   
    12     4    11 1   
    13     4    29 1   
    14     4    30 1   
    15     5     6 1   
    16     5    12 1   
    17     5    31 1   
    18     5    32 1   
    19     6    11 1   
    20     6    33 1   
    21     6    34 1   
    22     8    17 1   
    23     8    35 1   
    24     9    22 1   
    25     9    36 1   
    26    10    18 1   
    27    10    19 1   
    28    13    37 1   
    29    14    15 1   
    30    14    38 1   
    31    14    39 1   
    32    15    16 1   
    33    15    40 1   
    34    16    17 1   
    35    16    41 1   
    36    16    42 1   
    37    17    18 1   
    38    17    43 1   
    39    18    44 1   
    40    18    45 1   
    41    19    20 ar  
    42    19    24 ar  
    43    20    21 ar  
    44    20    46 1   
    45    21    22 ar  
    46    21    47 1   
    47    22    23 ar  
    48    23    24 ar  
    49    23    48 1   
    50    24    49 1   
@<TRIPOS>SUBSTRUCTURE
     1 FVK         1 TEMP              0 ****  ****    0 ROOT
