@<TRIPOS>MOLECULE
FVK
   49    50     1     0     0
SMALL
abcg2


@<TRIPOS>ATOM
      1 C4           7.4660     0.5570    -0.5400 c6         1 FVK       0.060000
      2 C5           5.0910     0.7900    -0.1330 c          1 FVK       0.653100
      3 C6           2.6600     0.9540     0.0020 c3         1 FVK       0.116000
      4 C3           8.6280    -0.1480     0.1280 c6         1 FVK       0.143100
      5 C1           6.1570    -1.4600    -0.2060 c6         1 FVK       0.060000
      6 C2           7.3900    -2.0760     0.4320 c6         1 FVK       0.143100
      7 O2           5.1810     2.0120    -0.2200 o          1 FVK      -0.637100
      8 O5          -2.2230     1.5870     1.3310 oh         1 FVK      -0.636000
      9 O4          -9.7330    -1.0860    -0.2350 oh         1 FVK      -0.535100
     10 O3          -4.5680     0.8070    -0.0210 os         1 FVK      -0.331100
     11 O1           8.5830    -1.5410    -0.0860 os         1 FVK      -0.443000
     12 N1           6.2050    -0.0120    -0.0880 n          1 FVK      -0.412800
     13 N2           3.8840     0.1860    -0.0510 ns         1 FVK      -0.529900
     14 C7           1.4630     0.0150     0.0130 c3         1 FVK       0.140800
     15 N3           0.2400     0.7830     0.1000 n7         1 FVK      -0.850400
     16 C8          -0.9490    -0.0410     0.0470 c3         1 FVK       0.128800
     17 C9          -2.2040     0.8170     0.1490 c3         1 FVK       0.162300
     18 C10         -3.4450    -0.0470     0.0130 c3         1 FVK       0.131600
     19 C11         -5.8020     0.2550    -0.0780 ca         1 FVK       0.104100
     20 C12         -6.0610    -1.1090    -0.1330 ca         1 FVK      -0.131500
     21 C13         -7.3720    -1.5730    -0.1860 ca         1 FVK      -0.138000
     22 C14         -8.4400    -0.6870    -0.1870 ca         1 FVK       0.104100
     23 C15         -8.1800     0.6810    -0.1360 ca         1 FVK      -0.138000
     24 C16         -6.8790     1.1440    -0.0820 ca         1 FVK      -0.131500
     25 H1           7.5030     1.6150    -0.2930 h1         1 FVK       0.053700
     26 H2           7.5560     0.4670    -1.6310 h1         1 FVK       0.053700
     27 H3           2.6380     1.5830     0.8970 h1         1 FVK       0.061200
     28 H4           2.5840     1.6190    -0.8610 h1         1 FVK       0.061200
     29 H5           9.5660     0.2200    -0.2880 h1         1 FVK       0.053950
     30 H6           8.6230     0.0750     1.2040 h1         1 FVK       0.053950
     31 H7           6.0790    -1.7650    -1.2570 h1         1 FVK       0.053700
     32 H8           5.3000    -1.8730     0.3250 h1         1 FVK       0.053700
     33 H9           7.3430    -1.9270     1.5200 h1         1 FVK       0.053950
     34 H10          7.3970    -3.1500     0.2410 h1         1 FVK       0.053950
     35 H11         -2.2720     0.9910     2.0870 ho         1 FVK       0.434000
     36 H12         -9.7850    -2.0480    -0.2580 ho         1 FVK       0.462000
     37 H13          3.8020    -0.8140     0.0010 hn         1 FVK       0.309500
     38 H14          1.4480    -0.5620    -0.9170 h1         1 FVK       0.028700
     39 H15          1.5720    -0.7130     0.8330 h1         1 FVK       0.028700
     40 H16          0.2370     1.3010     0.9710 hn         1 FVK       0.425000
     41 H18         -0.9620    -0.5720    -0.9100 h1         1 FVK       0.031700
     42 H19         -0.9680    -0.8180     0.8320 h1         1 FVK       0.031700
     43 H20         -2.1880     1.5400    -0.6720 h1         1 FVK       0.105700
     44 H21         -3.5120    -0.7470     0.8580 h1         1 FVK       0.034700
     45 H22         -3.3810    -0.6450    -0.9040 h1         1 FVK       0.034700
     46 H23         -5.2620    -1.8380    -0.1360 ha         1 FVK       0.123000
     47 H24         -7.5470    -2.6420    -0.2280 ha         1 FVK       0.121000
     48 H25         -9.0010     1.3870    -0.1380 ha         1 FVK       0.121000
     49 H26         -6.6900     2.2100    -0.0430 ha         1 FVK       0.123000
@<TRIPOS>BOND
     1     1     4 1   
     2     1    12 1   
     3     1    25 1   
     4     1    26 1   
     5     2     7 2   
     6     2    12 1   
     7     2    13 1   
     8     3    13 1   
     9     3    14 1   
    10     3    27 1   
    11     3    28 1   
    12     4    11 1   
    13     4    29 1   
    14     4    30 1   
    15     5     6 1   
    16     5    12 1   
    17     5    31 1   
    18     5    32 1   
    19     6    11 1   
    20     6    33 1   
    21     6    34 1   
    22     8    17 1   
    23     8    35 1   
    24     9    22 1   
    25     9    36 1   
    26    10    18 1   
    27    10    19 1   
    28    13    37 1   
    29    14    15 1   
    30    14    38 1   
    31    14    39 1   
    32    15    16 1   
    33    15    40 1   
    34    16    17 1   
    35    16    41 1   
    36    16    42 1   
    37    17    18 1   
    38    17    43 1   
    39    18    44 1   
    40    18    45 1   
    41    19    20 ar  
    42    19    24 ar  
    43    20    21 ar  
    44    20    46 1   
    45    21    22 ar  
    46    21    47 1   
    47    22    23 ar  
    48    23    24 ar  
    49    23    48 1   
    50    24    49 1   
@<TRIPOS>SUBSTRUCTURE
     1 FVK         1 TEMP              0 ****  ****    0 ROOT
