@<TRIPOS>MOLECULE
FVM
   62    67     1     0     0
SMALL
No Charge or Current Charge


@<TRIPOS>ATOM
      1 N1          -1.3470     1.0920     0.0310 nc         1 FVM      -0.629100
      2 N3          -5.0500    -0.2930     2.8620 na         1 FVM      -0.005200
      3 C4           1.6650    -0.0520    -1.8510 c3         1 FVM       0.136900
      4 C5          -0.2220     1.3070    -0.6560 cd         1 FVM       0.640700
      5 C6          -1.5720    -0.2620    -0.1960 ca         1 FVM       0.110400
      6 C7          -2.6150    -1.0780     0.3140 ca         1 FVM       0.067000
      7 C8          -2.5640    -2.4610     0.0110 ca         1 FVM      -0.121000
      8 C10         -0.5120    -2.1700    -1.2790 ca         1 FVM      -0.104000
      9 C13         -4.4270     0.6770     1.0810 cc         1 FVM       0.297300
     10 C15         -4.0950    -1.1540     2.3060 cd         1 FVM      -0.120300
     11 C17         -0.2220     3.8040    -0.0060 cy         1 FVM       0.219800
     12 C20          0.1530     5.6470    -1.7950 cy         1 FVM       0.149800
     13 C21          1.0720     3.2420    -1.8220 cy         1 FVM       0.219800
     14 C22          2.9970     0.2020     0.3000 ca         1 FVM      -0.071000
     15 N            0.3190     0.1860    -1.3020 na         1 FVM      -0.199600
     16 C1           4.0950    -2.3770     0.0070 ca         1 FVM      -0.110800
     17 C11         -0.5680    -0.8050    -0.9650 ca         1 FVM      -0.076200
     18 C12         -3.7220    -0.5500     1.1330 cc         1 FVM      -0.154000
     19 C16         -3.6020    -2.4000     3.0030 c3         1 FVM      -0.033800
     20 C18          0.7060     4.4760    -1.0050 cy         1 FVM      -0.132000
     21 C19          1.9000     5.2070    -0.4130 cy         1 FVM       0.149800
     22 C2           3.1990    -1.8730    -0.9560 ca         1 FVM      -0.071000
     23 C23          3.8920    -0.2870     1.2700 ca         1 FVM      -0.110800
     24 C25          4.4360    -1.5780     1.1170 ca         1 FVM       0.175000
     25 C3           2.6450    -0.5860    -0.8120 ca         1 FVM      -0.132300
     26 C9          -1.5270    -2.9990    -0.7770 ca         1 FVM       0.125000
     27 N2          -5.2550     0.8500     2.0930 nd         1 FVM      -0.533800
     28 N4           0.3870     2.5570    -0.6420 nn         1 FVM      -0.727600
     29 N5           1.5810     6.1710    -1.5690 n6         1 FVM      -0.844400
     30 Cl          -1.5090    -4.7190    -1.1400 cl         1 FVM      -0.216000
     31 H1          -5.5480    -0.4380     3.7400 hn         1 FVM       0.367000
     32 H2           1.5800    -0.7610    -2.6830 h1         1 FVM       0.063700
     33 H3           2.0630     0.8760    -2.2740 h1         1 FVM       0.063700
     34 H4          -3.3510    -3.1220     0.3590 ha         1 FVM       0.128000
     35 H5           0.2900    -2.5860    -1.8830 ha         1 FVM       0.129000
     36 H6           0.0080     3.9670     1.0540 h1         1 FVM       0.065450
     37 H7          -1.2890     3.9570    -0.2100 h1         1 FVM       0.065450
     38 H8          -0.1420     5.4310    -2.8290 h1         1 FVM       0.054200
     39 H9          -0.6380     6.1970    -1.2690 h1         1 FVM       0.054200
     40 H10          0.5420     3.1560    -2.7780 h1         1 FVM       0.065450
     41 H11          2.1450     3.0540    -1.9430 h1         1 FVM       0.065450
     42 H12          2.5730     1.1980     0.4110 ha         1 FVM       0.122000
     43 H13          3.9850     0.0790     3.4100 hc         1 FVM       0.048200
     44 H14          5.3420     0.7660     2.4990 hc         1 FVM       0.048200
     45 H15          3.7550     1.5470     2.4500 hc         1 FVM       0.048200
     46 H16          4.4200    -4.4120     0.6960 hc         1 FVM       0.048200
     47 H17          4.3240    -4.2680    -1.0640 hc         1 FVM       0.048200
     48 H18          5.7790    -3.7320    -0.2140 hc         1 FVM       0.048200
     49 H19         -3.9890     1.1830    -0.9740 hc         1 FVM       0.049700
     50 H20         -5.3630     2.0520    -0.2860 hc         1 FVM       0.049700
     51 H21         -3.7190     2.5050     0.1880 hc         1 FVM       0.049700
     52 H22         -4.1220    -3.2920     2.6330 hc         1 FVM       0.052700
     53 H23         -2.5260    -2.5450     2.8500 hc         1 FVM       0.052700
     54 H24         -3.7710    -2.3450     4.0850 hc         1 FVM       0.052700
     55 H25          1.7180     5.6060     0.5940 h1         1 FVM       0.054200
     56 H26          2.8590     4.6750    -0.4550 h1         1 FVM       0.054200
     57 H27          2.9300    -2.4840    -1.8150 ha         1 FVM       0.122000
     58 H28          1.7050     7.1760    -1.3910 hn         1 FVM       0.411000
     59 C14         -4.3660     1.6560    -0.0600 c3         1 FVM      -0.120400
     60 F            5.2960    -2.0570     2.0470 f          1 FVM      -0.181000
     61 C24          4.2620     0.5750     2.4720 c3         1 FVM      -0.040800
     62 C            4.6850    -3.7730    -0.1540 c3         1 FVM      -0.040800
@<TRIPOS>BOND
     1     1     4 2   
     2     1     5 1   
     3     2    10 1   
     4     2    27 1   
     5     2    31 1   
     6     3    15 1   
     7     3    25 1   
     8     3    32 1   
     9     3    33 1   
    10     4    15 1   
    11     4    28 1   
    12     5     6 ar  
    13     5    17 ar  
    14     6     7 ar  
    15     6    18 1   
    16     7    26 ar  
    17     7    34 1   
    18     8    17 ar  
    19     8    26 ar  
    20     8    35 1   
    21     9    18 1   
    22     9    27 2   
    23     9    59 1   
    24    10    18 2   
    25    10    19 1   
    26    11    20 1   
    27    11    28 1   
    28    11    36 1   
    29    11    37 1   
    30    12    20 1   
    31    12    29 1   
    32    12    38 1   
    33    12    39 1   
    34    13    20 1   
    35    13    28 1   
    36    13    40 1   
    37    13    41 1   
    38    14    23 ar  
    39    14    25 ar  
    40    14    42 1   
    41    15    17 1   
    42    16    22 ar  
    43    16    24 ar  
    44    16    62 1   
    45    19    52 1   
    46    19    53 1   
    47    19    54 1   
    48    20    21 1   
    49    21    29 1   
    50    21    55 1   
    51    21    56 1   
    52    22    25 ar  
    53    22    57 1   
    54    23    24 ar  
    55    23    61 1   
    56    24    60 1   
    57    26    30 1   
    58    29    58 1   
    59    43    61 1   
    60    44    61 1   
    61    45    61 1   
    62    46    62 1   
    63    47    62 1   
    64    48    62 1   
    65    49    59 1   
    66    50    59 1   
    67    51    59 1   
@<TRIPOS>SUBSTRUCTURE
     1 FVM         1 TEMP              0 ****  ****    0 ROOT
