@<TRIPOS>MOLECULE
FVM
   62    67     1     0     0
SMALL
bcc


@<TRIPOS>ATOM
      1 N1          -1.2600     1.0160     0.1160 nc         1 FVM      -0.629100
      2 N3          -5.1090    -0.2920     2.7770 na         1 FVM      -0.005600
      3 C4           1.6590    -0.0350    -1.7790 c3         1 FVM       0.107600
      4 C5          -0.1400     1.2520    -0.5200 cd         1 FVM       0.640700
      5 C6          -1.5370    -0.3050    -0.1220 ca         1 FVM       0.110400
      6 C7          -2.6040    -1.0890     0.3230 ca         1 FVM       0.067000
      7 C8          -2.6040    -2.4320    -0.0610 ca         1 FVM      -0.139000
      8 C10         -0.5220    -2.1980    -1.3080 ca         1 FVM      -0.122000
      9 C13         -4.4680     0.5960     0.9740 cc         1 FVM       0.362600
     10 C15         -4.1230    -1.1030     2.3610 cd         1 FVM      -0.069600
     11 C17         -0.1610     3.6570     0.0060 cy         1 FVM       0.219800
     12 C20          0.2300     5.6290    -1.8090 cy         1 FVM       0.149800
     13 C21          1.1770     3.1580    -1.5700 cy         1 FVM       0.219800
     14 C22          3.0880     0.2110     0.2800 ca         1 FVM      -0.089000
     15 N            0.3480     0.1580    -1.1880 na         1 FVM      -0.170300
     16 C1           4.0910    -2.3810    -0.0280 ca         1 FVM      -0.110800
     17 C11         -0.5350    -0.8680    -0.9280 ca         1 FVM      -0.076200
     18 C12         -3.6650    -0.5540     1.1750 cc         1 FVM      -0.219300
     19 C16         -3.6970    -2.3110     3.1150 c3         1 FVM      -0.033800
     20 C18          0.7230     4.4790    -0.9320 cy         1 FVM      -0.132000
     21 C19          1.7870     5.4620    -0.4320 cy         1 FVM       0.149800
     22 C2           3.1700    -1.8550    -0.9310 ca         1 FVM      -0.089000
     23 C23          4.0010    -0.2690     1.2110 ca         1 FVM      -0.110800
     24 C25          4.4730    -1.5600     1.0190 ca         1 FVM       0.139900
     25 C3           2.6640    -0.5700    -0.7900 ca         1 FVM      -0.132300
     26 C9          -1.5860    -2.9590    -0.8490 ca         1 FVM       0.033400
     27 N2          -5.3380     0.7330     1.9570 nd         1 FVM      -0.533800
     28 N4           0.4940     2.4450    -0.4830 nn         1 FVM      -0.727600
     29 N5           1.5230     6.3010    -1.6100 n6         1 FVM      -0.789200
     30 CL          -1.6540    -4.6420    -1.2840 cl         1 FVM      -0.124400
     31 H1          -5.6530    -0.3870     3.6190 hn         1 FVM       0.316700
     32 H2           1.5520    -0.7230    -2.6190 h1         1 FVM       0.063700
     33 H3           1.9990     0.9040    -2.2090 h1         1 FVM       0.063700
     34 H4          -3.4200    -3.0720     0.2500 ha         1 FVM       0.146000
     35 H5           0.2600    -2.6290    -1.9170 ha         1 FVM       0.147000
     36 H6          -0.0410     3.8340     1.0760 h1         1 FVM       0.065450
     37 H7          -1.2250     3.7010    -0.2450 h1         1 FVM       0.065450
     38 H8          -0.0210     5.3910    -2.8460 h1         1 FVM       0.054200
     39 H9          -0.6240     6.1450    -1.3530 h1         1 FVM       0.054200
     40 H10          0.7420     2.9720    -2.5570 h1         1 FVM       0.065450
     41 H11          2.2560     2.9930    -1.6140 h1         1 FVM       0.065450
     42 H12          2.7040     1.2180     0.4060 ha         1 FVM       0.140000
     43 H13          4.1650     0.1170     3.3240 hc         1 FVM       0.048200
     44 H14          5.5460     0.6670     2.3880 hc         1 FVM       0.048200
     45 H15          4.0290     1.5580     2.3230 hc         1 FVM       0.048200
     46 H16          4.4520    -4.3750     0.7090 hc         1 FVM       0.048200
     47 H17          4.1940    -4.2680    -1.0290 hc         1 FVM       0.048200
     48 H18          5.7240    -3.7530    -0.3290 hc         1 FVM       0.048200
     49 H19         -4.4200     1.0300    -1.1200 hc         1 FVM       0.049700
     50 H20         -5.3160     2.2000    -0.1460 hc         1 FVM       0.049700
     51 H21         -3.5450     2.1790    -0.1290 hc         1 FVM       0.049700
     52 H22         -4.2240    -3.2040     2.7740 hc         1 FVM       0.052700
     53 H23         -2.6320    -2.4880     2.9780 hc         1 FVM       0.052700
     54 H24         -3.8890    -2.2010     4.1820 hc         1 FVM       0.052700
     55 H25          1.4950     5.9170     0.5210 h1         1 FVM       0.054200
     56 H26          2.8100     5.0890    -0.3410 h1         1 FVM       0.054200
     57 H27          2.8440    -2.4720    -1.7600 ha         1 FVM       0.140000
     58 H28          1.4620     7.2920    -1.4190 hn         1 FVM       0.355800
     59 C14         -4.4380     1.5560    -0.1640 c3         1 FVM      -0.120400
     60 F            5.3610    -2.0440     1.9090 f          1 FVM      -0.145900
     61 C24          4.4610     0.5600     2.3720 c3         1 FVM      -0.040800
     62 C            4.6440    -3.7660    -0.1750 c3         1 FVM      -0.040800
@<TRIPOS>BOND
     1     1     4 2   
     2     1     5 1   
     3     2    10 1   
     4     2    27 1   
     5     2    31 1   
     6     3    15 1   
     7     3    25 1   
     8     3    32 1   
     9     3    33 1   
    10     4    15 1   
    11     4    28 1   
    12     5     6 ar  
    13     5    17 ar  
    14     6     7 ar  
    15     6    18 1   
    16     7    26 ar  
    17     7    34 1   
    18     8    17 ar  
    19     8    26 ar  
    20     8    35 1   
    21     9    18 1   
    22     9    27 2   
    23     9    59 1   
    24    10    18 2   
    25    10    19 1   
    26    11    20 1   
    27    11    28 1   
    28    11    36 1   
    29    11    37 1   
    30    12    20 1   
    31    12    29 1   
    32    12    38 1   
    33    12    39 1   
    34    13    20 1   
    35    13    28 1   
    36    13    40 1   
    37    13    41 1   
    38    14    23 ar  
    39    14    25 ar  
    40    14    42 1   
    41    15    17 1   
    42    16    22 ar  
    43    16    24 ar  
    44    16    62 1   
    45    19    52 1   
    46    19    53 1   
    47    19    54 1   
    48    20    21 1   
    49    21    29 1   
    50    21    55 1   
    51    21    56 1   
    52    22    25 ar  
    53    22    57 1   
    54    23    24 ar  
    55    23    61 1   
    56    24    60 1   
    57    26    30 1   
    58    29    58 1   
    59    43    61 1   
    60    44    61 1   
    61    45    61 1   
    62    46    62 1   
    63    47    62 1   
    64    48    62 1   
    65    49    59 1   
    66    50    59 1   
    67    51    59 1   
@<TRIPOS>SUBSTRUCTURE
     1 FVM         1 TEMP              0 ****  ****    0 ROOT
