@<TRIPOS>MOLECULE
FVN
   49    50     1     0     0
SMALL
bcc


@<TRIPOS>ATOM
      1 C1          -1.5170     3.8800     1.3120 c3         1 FVN      -0.130100
      2 C2          -1.8620     2.4660     0.8440 c3         1 FVN       0.179500
      3 C3          -3.3180     2.4070     0.3610 c3         1 FVN      -0.016100
      4 C4          -3.8000     1.0110     0.0930 ca         1 FVN      -0.106300
      5 C5          -3.6140     0.3930    -1.1450 ca         1 FVN      -0.080000
      6 C6          -4.0310    -0.9060    -1.3740 ca         1 FVN      -0.190500
      7 C7          -4.6480    -1.6390    -0.3580 ca         1 FVN       0.137100
      8 C8          -4.8440    -1.0400     0.8830 ca         1 FVN      -0.190500
      9 C9          -4.4200     0.2690     1.0890 ca         1 FVN      -0.080000
     10 O1          -5.0210    -2.8990    -0.6680 os         1 FVN      -0.318900
     11 C10         -5.6660    -3.6700     0.3240 c3         1 FVN       0.126700
     12 N1          -0.9950     1.9510    -0.1980 n7         1 FVN      -0.812200
     13 C11          0.3820     1.7400     0.1810 c3         1 FVN       0.138800
     14 C12          1.1600     1.0620    -0.9430 c3         1 FVN       0.189400
     15 C13          2.5600     0.7160    -0.4890 ca         1 FVN      -0.118300
     16 C14          2.8750    -0.6030    -0.1750 ca         1 FVN      -0.109000
     17 C15          4.1440    -0.9570     0.2730 ca         1 FVN       0.044600
     18 C16          5.1190     0.0450     0.4040 ca         1 FVN       0.087100
     19 C17          4.8060     1.3590     0.0940 ca         1 FVN      -0.193000
     20 C18          3.5350     1.6940    -0.3490 ca         1 FVN      -0.109000
     21 O2           6.3380    -0.3430     0.8340 oh         1 FVN      -0.516100
     22 N2           4.5340    -2.2600     0.5980 ns         1 FVN      -0.474100
     23 C19          3.8080    -3.3970     0.5980 c          1 FVN       0.670900
     24 O3           2.6340    -3.5120     0.3080 o          1 FVN      -0.582100
     25 O4           1.1510     1.8390    -2.1250 oh         1 FVN      -0.584800
     26 H1          -0.4950     3.9430     1.6880 hc         1 FVN       0.036367
     27 H2          -1.6160     4.5940     0.4910 hc         1 FVN       0.036367
     28 H3          -2.1810     4.2020     2.1160 hc         1 FVN       0.036367
     29 H4          -1.7720     1.7880     1.7010 h1         1 FVN       0.061700
     30 H5          -3.9520     2.8730     1.1200 hc         1 FVN       0.043700
     31 H6          -3.4120     3.0240    -0.5390 hc         1 FVN       0.043700
     32 H7          -3.1380     0.9380    -1.9500 ha         1 FVN       0.128000
     33 H8          -3.8810    -1.3630    -2.3450 ha         1 FVN       0.137500
     34 H9          -5.3270    -1.5670     1.6950 ha         1 FVN       0.137500
     35 H10         -4.5870     0.7170     2.0630 ha         1 FVN       0.128000
     36 H11         -5.0330    -3.8220     1.2020 h1         1 FVN       0.038367
     37 H12         -6.6080    -3.2170     0.6450 h1         1 FVN       0.038367
     38 H13         -5.8780    -4.6370    -0.1250 h1         1 FVN       0.038367
     39 H14         -1.0400     2.5580    -1.0090 hn         1 FVN       0.360800
     40 H16          0.9210     2.6580     0.4760 h1         1 FVN       0.033200
     41 H17          0.4050     1.0840     1.0560 h1         1 FVN       0.033200
     42 H18          0.6360     0.1370    -1.1990 h1         1 FVN       0.100700
     43 H19          2.1150    -1.3610    -0.2820 ha         1 FVN       0.172000
     44 H20          5.5630     2.1280     0.1980 ha         1 FVN       0.131000
     45 H21          3.3270     2.7330    -0.5770 ha         1 FVN       0.127000
     46 H22          6.9420     0.4080     0.8740 ho         1 FVN       0.434000
     47 H23          5.4980    -2.3750     0.8730 hn         1 FVN       0.333500
     48 H24          4.4270    -4.2520     0.9050 h5         1 FVN       0.013200
     49 H25          1.4900     2.7170    -1.9240 ho         1 FVN       0.392000
@<TRIPOS>BOND
     1     1     2 1   
     2     1    26 1   
     3     1    27 1   
     4     1    28 1   
     5     2     3 1   
     6     2    12 1   
     7     2    29 1   
     8     3     4 1   
     9     3    30 1   
    10     3    31 1   
    11     4     5 ar  
    12     4     9 ar  
    13     5     6 ar  
    14     5    32 1   
    15     6     7 ar  
    16     6    33 1   
    17     7     8 ar  
    18     7    10 1   
    19     8     9 ar  
    20     8    34 1   
    21     9    35 1   
    22    10    11 1   
    23    11    36 1   
    24    11    37 1   
    25    11    38 1   
    26    12    13 1   
    27    12    39 1   
    28    13    14 1   
    29    13    40 1   
    30    13    41 1   
    31    14    15 1   
    32    14    25 1   
    33    14    42 1   
    34    15    16 ar  
    35    15    20 ar  
    36    16    17 ar  
    37    16    43 1   
    38    17    18 ar  
    39    17    22 1   
    40    18    19 ar  
    41    18    21 1   
    42    19    20 ar  
    43    19    44 1   
    44    20    45 1   
    45    21    46 1   
    46    22    23 1   
    47    22    47 1   
    48    23    24 2   
    49    23    48 1   
    50    25    49 1   
@<TRIPOS>SUBSTRUCTURE
     1 FVN         1 TEMP              0 ****  ****    0 ROOT
