@<TRIPOS>MOLECULE
FVN
   49    50     1     0     0
SMALL
No Charge or Current Charge


@<TRIPOS>ATOM
      1 C1          -1.6720     4.1660     0.6850 c3         1 FVN      -0.130100
      2 C2          -2.0260     2.6720     0.5100 c3         1 FVN       0.179500
      3 C3          -3.4450     2.4890    -0.0890 c3         1 FVN      -0.016100
      4 C4          -3.9170     1.0360    -0.0970 ca         1 FVN      -0.106300
      5 C5          -3.9260     0.2940    -1.2940 ca         1 FVN      -0.062000
      6 C6          -4.3650    -1.0410    -1.2950 ca         1 FVN      -0.172500
      7 C7          -4.7990    -1.6500    -0.1070 ca         1 FVN       0.137100
      8 C8          -4.7920    -0.9090     1.0950 ca         1 FVN      -0.172500
      9 C9          -4.3530     0.4270     1.0960 ca         1 FVN      -0.062000
     10 O1          -5.2180    -2.9630    -0.1700 os         1 FVN      -0.342100
     11 C10         -5.6800    -3.6770     0.9900 c3         1 FVN       0.149900
     12 N1          -1.0250     2.0190    -0.3600 n7         1 FVN      -0.867400
     13 C11          0.3020     1.7280     0.2380 c3         1 FVN       0.138800
     14 C12          1.2680     1.0730    -0.7980 c3         1 FVN       0.212600
     15 C13          2.6050     0.6450    -0.1870 ca         1 FVN      -0.118300
     16 C14          3.0930    -0.6580    -0.4180 ca         1 FVN      -0.091000
     17 C15          4.3260    -1.0800     0.1320 ca         1 FVN      -0.048000
     18 C16          5.0700    -0.1720     0.9170 ca         1 FVN       0.087100
     19 C17          4.5930     1.1280     1.1450 ca         1 FVN      -0.175000
     20 C18          3.3680     1.5370     0.5950 ca         1 FVN      -0.091000
     21 O2           6.2660    -0.5490     1.4620 oh         1 FVN      -0.555100
     22 N2           4.8640    -2.3860    -0.0680 ns         1 FVN      -0.148000
     23 C19          4.4010    -3.5010    -0.7530 c          1 FVN       0.603900
     24 O3           3.3400    -3.5660    -1.3670 o          1 FVN      -0.582100
     25 O4           1.5150     1.9730    -1.8930 oh         1 FVN      -0.647000
     26 H1          -0.7050     4.2900     1.1860 hc         1 FVN       0.036367
     27 H2          -1.6300     4.6770    -0.2840 hc         1 FVN       0.036367
     28 H3          -2.4270     4.6670     1.3020 hc         1 FVN       0.036367
     29 H4          -2.0270     2.2020     1.5050 h1         1 FVN       0.061700
     30 H5          -4.1540     3.0870     0.4970 hc         1 FVN       0.043700
     31 H6          -3.4690     2.9080    -1.1020 hc         1 FVN       0.043700
     32 H7          -3.5890     0.7500    -2.2220 ha         1 FVN       0.110000
     33 H8          -4.3680    -1.6080    -2.2230 ha         1 FVN       0.119500
     34 H9          -5.1210    -1.3490     2.0320 ha         1 FVN       0.119500
     35 H10         -4.3510     0.9900     2.0260 ha         1 FVN       0.110000
     36 H11         -4.8930    -3.7340     1.7530 h1         1 FVN       0.038367
     37 H12         -6.5600    -3.1860     1.4260 h1         1 FVN       0.038367
     38 H13         -5.9640    -4.7020     0.7180 h1         1 FVN       0.038367
     39 H14         -0.8800     2.6010    -1.1940 hn         1 FVN       0.416000
     40 H16          0.7610     2.6490     0.6190 h1         1 FVN       0.033200
     41 H17          0.1860     1.0430     1.0900 h1         1 FVN       0.033200
     42 H18          0.7590     0.1730    -1.1710 h1         1 FVN       0.100700
     43 H19          2.5000    -1.3310    -1.0300 ha         1 FVN       0.154000
     44 H20          5.1670     1.8280     1.7460 ha         1 FVN       0.113000
     45 H21          3.0190     2.5510     0.7800 ha         1 FVN       0.109000
     46 H22          6.6320     0.2090     1.9690 ho         1 FVN       0.473000
     47 H23          5.7600    -2.5220     0.3820 hn         1 FVN       0.167000
     48 H24          5.1130    -4.3440    -0.6800 h5         1 FVN       0.013200
     49 H25          2.1630     2.6320    -1.5680 ho         1 FVN       0.431000
@<TRIPOS>BOND
     1     1     2 1   
     2     1    26 1   
     3     1    27 1   
     4     1    28 1   
     5     2     3 1   
     6     2    12 1   
     7     2    29 1   
     8     3     4 1   
     9     3    30 1   
    10     3    31 1   
    11     4     5 ar  
    12     4     9 ar  
    13     5     6 ar  
    14     5    32 1   
    15     6     7 ar  
    16     6    33 1   
    17     7     8 ar  
    18     7    10 1   
    19     8     9 ar  
    20     8    34 1   
    21     9    35 1   
    22    10    11 1   
    23    11    36 1   
    24    11    37 1   
    25    11    38 1   
    26    12    13 1   
    27    12    39 1   
    28    13    14 1   
    29    13    40 1   
    30    13    41 1   
    31    14    15 1   
    32    14    25 1   
    33    14    42 1   
    34    15    16 ar  
    35    15    20 ar  
    36    16    17 ar  
    37    16    43 1   
    38    17    18 ar  
    39    17    22 1   
    40    18    19 ar  
    41    18    21 1   
    42    19    20 ar  
    43    19    44 1   
    44    20    45 1   
    45    21    46 1   
    46    22    23 1   
    47    22    47 1   
    48    23    24 2   
    49    23    48 1   
    50    25    49 1   
@<TRIPOS>SUBSTRUCTURE
     1 FVN         1 TEMP              0 ****  ****    0 ROOT
