@<TRIPOS>MOLECULE
FVQ
   38    39     1     0     0
SMALL
No Charge or Current Charge


@<TRIPOS>ATOM
      1 O6           2.3390     3.5210     0.4100 oh         1 FVQ      -0.718000
      2 C6           3.0320     2.3840     0.9700 c3         1 FVQ       0.169600
      3 C5           2.4390     1.0090     0.5190 c6         1 FVQ       0.168300
      4 O5           2.4470     0.9620    -0.9370 os         1 FVQ      -0.454000
      5 C4           3.2330    -0.2010     1.1020 c6         1 FVQ       0.148300
      6 O4           3.1970    -0.2310     2.5440 oh         1 FVQ      -0.724000
      7 C3           2.6550    -1.5350     0.5330 c6         1 FVQ       0.142300
      8 O3           3.4370    -2.6520     0.9950 oh         1 FVQ      -0.652000
      9 C2           2.6430    -1.5080    -1.0250 c6         1 FVQ       0.125300
     10 O2           4.0130    -1.5430    -1.5080 oh         1 FVQ      -0.690000
     11 C1           1.8620    -0.2320    -1.5060 c6         1 FVQ       0.351300
     12 O1           0.4740    -0.3020    -1.1320 os         1 FVQ      -0.482000
     13 C7          -0.3770     0.7340    -1.6530 c3         1 FVQ       0.247700
     14 C8          -1.7410     0.5000    -1.1680 c1         1 FVQ      -0.113100
     15 C9          -2.8570     0.2980    -0.7310 cg         1 FVQ      -0.102000
     16 C10         -4.1700     0.0500    -0.2080 ca         1 FVQ      -0.021000
     17 C15         -5.2450     0.8890    -0.5490 ca         1 FVQ      -0.056000
     18 C14         -6.5100     0.6010    -0.0090 ca         1 FVQ      -0.165000
     19 C13         -6.6590    -0.5060     0.8450 ca         1 FVQ       0.339900
     20 N12         -5.6310    -1.3200     1.1790 nb         1 FVQ      -0.666000
     21 C11         -4.4100    -1.0400     0.6560 ca         1 FVQ       0.357900
     22 H6           2.8270     4.3270     0.6990 ho         1 FVQ       0.504000
     23 H61C         4.0910     2.4090     0.6800 h1         1 FVQ       0.038200
     24 H62C         2.9960     2.4300     2.0670 h1         1 FVQ       0.038200
     25 H5           1.3990     0.9610     0.8730 h1         1 FVQ       0.068700
     26 H4           4.2760    -0.1080     0.7620 h1         1 FVQ       0.070700
     27 H1           1.9300    -0.1760    -2.6040 h2         1 FVQ       0.068700
     28 HA           3.4320    -1.1600     2.7870 ho         1 FVQ       0.523000
     29 H3           1.6170    -1.6380     0.8830 h1         1 FVQ       0.061700
     30 HB           4.1330    -2.7630     0.3050 ho         1 FVQ       0.449000
     31 H2           2.0980    -2.3940    -1.3840 h1         1 FVQ       0.049700
     32 HC           3.9810    -1.5550    -2.4930 ho         1 FVQ       0.503000
     33 H71C        -0.0450     1.7250    -1.3170 h1         1 FVQ       0.058700
     34 H72C        -0.3800     0.7250    -2.7510 h1         1 FVQ       0.058700
     35 H15         -5.1040     1.7410    -1.2120 ha         1 FVQ       0.125000
     36 H11         -3.6000    -1.7110     0.9410 h4         1 FVQ       0.027100
     37 H14         -7.3690     1.2230    -0.2450 ha         1 FVQ       0.126000
     38 H13         -7.6300    -0.7480     1.2750 h4         1 FVQ       0.021100
@<TRIPOS>BOND
     1     1     2 1   
     2     1    22 1   
     3     2     3 1   
     4     2    23 1   
     5     2    24 1   
     6     3     4 1   
     7     3     5 1   
     8     3    25 1   
     9     4    11 1   
    10     5     6 1   
    11     5     7 1   
    12     5    26 1   
    13     6    28 1   
    14     7     8 1   
    15     7     9 1   
    16     7    29 1   
    17     8    30 1   
    18     9    10 1   
    19     9    11 1   
    20     9    31 1   
    21    10    32 1   
    22    11    12 1   
    23    11    27 1   
    24    12    13 1   
    25    13    14 1   
    26    13    33 1   
    27    13    34 1   
    28    14    15 3   
    29    15    16 1   
    30    16    17 ar  
    31    16    21 ar  
    32    17    18 ar  
    33    17    35 1   
    34    18    19 ar  
    35    18    37 1   
    36    19    20 ar  
    37    19    38 1   
    38    20    21 ar  
    39    21    36 1   
@<TRIPOS>SUBSTRUCTURE
     1 FVQ         1 TEMP              0 ****  ****    0 ROOT
