@<TRIPOS>MOLECULE
FVQ
   38    39     1     0     0
SMALL
bcc


@<TRIPOS>ATOM
      1 O6           2.1500     3.3600     0.5100 oh         1 FVQ      -0.595800
      2 C6           3.0230     2.3400     0.9360 c3         1 FVQ       0.146400
      3 C5           2.4500     1.0070     0.5070 c6         1 FVQ       0.145100
      4 O5           2.4290     0.9970    -0.9130 os         1 FVQ      -0.407600
      5 C4           3.2650    -0.1760     1.0280 c6         1 FVQ       0.125100
      6 O4           3.1810    -0.1690     2.4330 oh         1 FVQ      -0.601800
      7 C3           2.7000    -1.4700     0.4510 c6         1 FVQ       0.119100
      8 O3           3.5050    -2.5270     0.9140 oh         1 FVQ      -0.589800
      9 C2           2.6390    -1.4050    -1.0740 c6         1 FVQ       0.102100
     10 O2           3.9530    -1.3620    -1.5710 oh         1 FVQ      -0.567800
     11 C1           1.8790    -0.1430    -1.4950 c6         1 FVQ       0.304900
     12 O1           0.5360    -0.3270    -1.1480 os         1 FVQ      -0.435600
     13 C7          -0.3140     0.7110    -1.5910 c3         1 FVQ       0.224500
     14 C8          -1.6630     0.4400    -1.1170 c1         1 FVQ      -0.113100
     15 C9          -2.7810     0.2480    -0.7140 cg         1 FVQ      -0.102000
     16 C10         -4.0960     0.0190    -0.2200 ca         1 FVQ      -0.086300
     17 C15         -5.1630     0.8480    -0.5630 ca         1 FVQ      -0.074000
     18 C14         -6.4130     0.5760    -0.0370 ca         1 FVQ      -0.248300
     19 C13         -6.5560    -0.5120     0.8120 ca         1 FVQ       0.405200
     20 N12         -5.5480    -1.3120     1.1440 nb         1 FVQ      -0.666000
     21 C11         -4.3530    -1.0520     0.6410 ca         1 FVQ       0.423200
     22 H6           2.4780     4.1950     0.8560 ho         1 FVQ       0.405000
     23 H61C         4.0290     2.4570     0.5080 h1         1 FVQ       0.038200
     24 H62C         3.1350     2.3340     2.0250 h1         1 FVQ       0.038200
     25 H5           1.4290     0.9250     0.9070 h1         1 FVQ       0.068700
     26 H4           4.3080    -0.0600     0.6980 h1         1 FVQ       0.070700
     27 H1           1.9740     0.0140    -2.5790 h2         1 FVQ       0.068700
     28 HA           3.6090    -0.9680     2.7580 ho         1 FVQ       0.424000
     29 H3           1.6700    -1.5780     0.8180 h1         1 FVQ       0.061700
     30 HB           2.9980    -3.3440     0.8770 ho         1 FVQ       0.410000
     31 H2           2.0980    -2.2820    -1.4540 h1         1 FVQ       0.049700
     32 HC           3.9260    -1.5050    -2.5220 ho         1 FVQ       0.404000
     33 H71C         0.0050     1.6870    -1.2100 h1         1 FVQ       0.058700
     34 H72C        -0.3130     0.7770    -2.6870 h1         1 FVQ       0.058700
     35 H15         -5.0110     1.6880    -1.2280 ha         1 FVQ       0.143000
     36 H11         -3.5450    -1.7160     0.9270 h4         1 FVQ       0.027100
     37 H14         -7.2650     1.1970    -0.2770 ha         1 FVQ       0.144000
     38 H13         -7.5240    -0.7460     1.2420 h4         1 FVQ       0.021100
@<TRIPOS>BOND
     1     1     2 1   
     2     1    22 1   
     3     2     3 1   
     4     2    23 1   
     5     2    24 1   
     6     3     4 1   
     7     3     5 1   
     8     3    25 1   
     9     4    11 1   
    10     5     6 1   
    11     5     7 1   
    12     5    26 1   
    13     6    28 1   
    14     7     8 1   
    15     7     9 1   
    16     7    29 1   
    17     8    30 1   
    18     9    10 1   
    19     9    11 1   
    20     9    31 1   
    21    10    32 1   
    22    11    12 1   
    23    11    27 1   
    24    12    13 1   
    25    13    14 1   
    26    13    33 1   
    27    13    34 1   
    28    14    15 3   
    29    15    16 1   
    30    16    17 ar  
    31    16    21 ar  
    32    17    18 ar  
    33    17    35 1   
    34    18    19 ar  
    35    18    37 1   
    36    19    20 ar  
    37    19    38 1   
    38    20    21 ar  
    39    21    36 1   
@<TRIPOS>SUBSTRUCTURE
     1 FVQ         1 TEMP              0 ****  ****    0 ROOT
