@<TRIPOS>MOLECULE
FVR
   62    66     1     0     0
SMALL
bcc


@<TRIPOS>ATOM
      1 C10         17.8300     6.2980    10.7850 c6         1 FVR       0.139800
      2 C11         18.7030     6.6440    11.9910 c6         1 FVR       0.238500
      3 C12         17.9820     7.6370    12.8930 c6         1 FVR      -0.081400
      4 C14         20.0460     4.6290    12.3920 cc         1 FVR       0.706800
      5 C16         21.2220     2.5470    12.9190 c          1 FVR       0.757100
      6 C18         22.0250     2.9130    11.8120 cc         1 FVR      -0.278900
      7 C19         21.8030     4.0750    11.0900 cd         1 FVR       0.185400
      8 C21         22.7880     4.1240    10.0730 cd         1 FVR      -0.208000
      9 C01         15.2530    11.7370    14.3840 ca         1 FVR       0.143100
     10 C02         14.8770    10.3960    14.3750 ca         1 FVR      -0.190500
     11 C03         15.6210     9.4750    13.6460 ca         1 FVR      -0.086000
     12 C04         16.7460     9.8480    12.9190 ca         1 FVR      -0.117300
     13 C05         17.1060    11.1950    12.9450 ca         1 FVR      -0.086000
     14 C06         16.3790    12.1290    13.6600 ca         1 FVR      -0.190500
     15 C07         17.5290     8.8590    12.0940 c6         1 FVR      -0.007400
     16 C08         16.7210     8.4170    10.8720 c6         1 FVR       0.165800
     17 C22         23.5580     2.9910    10.2270 cc         1 FVR      -0.109300
     18 C27         13.4250    12.3680    15.7730 c3         1 FVR       0.187700
     19 C28         12.8630    13.6310    16.3520 ca         1 FVR      -0.097300
     20 C29         12.1590    14.5190    15.5420 ca         1 FVR      -0.102500
     21 C30         11.6540    15.7000    16.0650 ca         1 FVR      -0.132500
     22 C31         11.8460    16.0050    17.4070 ca         1 FVR      -0.116000
     23 C32         12.5450    15.1250    18.2220 ca         1 FVR      -0.132500
     24 C33         13.0520    13.9450    17.6940 ca         1 FVR      -0.102500
     25 N09         17.4750     7.4940    10.0490 n3         1 FVR      -0.709600
     26 N13         19.0470     5.4660    12.7610 nu         1 FVR      -0.848200
     27 N15         20.2240     3.5020    13.1780 n          1 FVR      -0.419300
     28 N20         20.7910     4.9350    11.3700 nd         1 FVR      -0.667100
     29 N23         23.0980     2.2640    11.2690 na         1 FVR      -0.130100
     30 O17         21.3490     1.5420    13.6050 o          1 FVR      -0.640500
     31 O26         14.6000    12.7120    15.0530 os         1 FVR      -0.317900
     32 H101        16.9360     5.7510    11.1390 h1         1 FVR       0.039200
     33 H102        18.3770     5.6250    10.1220 h1         1 FVR       0.039200
     34 H111        19.6300     7.0920    11.6310 h1         1 FVR       0.103700
     35 H122        17.1110     7.1450    13.3400 hc         1 FVR       0.046200
     36 H121        18.6330     7.9440    13.7160 hc         1 FVR       0.046200
     37 H211        22.9210     4.8870     9.3230 ha         1 FVR       0.165000
     38 H021        14.0140    10.0460    14.9250 ha         1 FVR       0.140000
     39 H031        15.2980     8.4410    13.6550 ha         1 FVR       0.129500
     40 H051        17.9770    11.5240    12.3890 ha         1 FVR       0.129500
     41 H061        16.6800    13.1700    13.6630 ha         1 FVR       0.140000
     42 H071        18.4250     9.3680    11.7230 hc         1 FVR       0.068700
     43 H082        16.4670     9.2950    10.2720 h1         1 FVR       0.035200
     44 H081        15.7650     7.9750    11.2090 h1         1 FVR       0.035200
     45 H221        24.4090     2.6570     9.6550 h4         1 FVR       0.165000
     46 H242        19.7500     2.4350    14.8930 h1         1 FVR       0.055033
     47 H241        19.4110     4.1630    14.9990 h1         1 FVR       0.055033
     48 H243        18.3470     3.0920    14.0570 h1         1 FVR       0.055033
     49 H252        16.5570     8.0870     8.2700 h1         1 FVR       0.032033
     50 H253        17.3760     6.5270     8.2000 h1         1 FVR       0.032033
     51 H251        15.8070     6.6630     9.0080 h1         1 FVR       0.032033
     52 H272        12.6940    11.8990    15.1040 h1         1 FVR       0.040200
     53 H271        13.6560    11.6510    16.5680 h1         1 FVR       0.040200
     54 H291        11.9980    14.2800    14.4970 ha         1 FVR       0.132500
     55 H301        11.1050    16.3810    15.4270 ha         1 FVR       0.133000
     56 H311        11.4480    16.9250    17.8160 ha         1 FVR       0.131000
     57 H321        12.6940    15.3560    19.2680 ha         1 FVR       0.133000
     58 H331        13.5970    13.2590    18.3320 ha         1 FVR       0.132500
     59 H131        18.3200     5.1160    13.3620 hn         1 FVR       0.429800
     60 H231        23.4880     1.3950    11.5950 hn         1 FVR       0.312700
     61 C24         19.3790     3.2920    14.3450 c3         1 FVR       0.063300
     62 C25         16.7660     7.1750     8.8310 c3         1 FVR       0.156100
@<TRIPOS>BOND
     1     1     2 1   
     2     1    25 1   
     3     1    32 1   
     4     1    33 1   
     5     2     3 1   
     6     2    26 1   
     7     2    34 1   
     8     3    15 1   
     9     3    35 1   
    10     3    36 1   
    11     4    26 1   
    12     4    27 1   
    13     4    28 2   
    14     5     6 1   
    15     5    27 1   
    16     5    30 2   
    17     6     7 2   
    18     6    29 1   
    19     7     8 1   
    20     7    28 1   
    21     8    17 2   
    22     8    37 1   
    23     9    10 ar  
    24     9    14 ar  
    25     9    31 1   
    26    10    11 ar  
    27    10    38 1   
    28    11    12 ar  
    29    11    39 1   
    30    12    13 ar  
    31    12    15 1   
    32    13    14 ar  
    33    13    40 1   
    34    14    41 1   
    35    15    16 1   
    36    15    42 1   
    37    16    25 1   
    38    16    43 1   
    39    16    44 1   
    40    17    29 1   
    41    17    45 1   
    42    18    19 1   
    43    18    31 1   
    44    18    52 1   
    45    18    53 1   
    46    19    20 ar  
    47    19    24 ar  
    48    20    21 ar  
    49    20    54 1   
    50    21    22 ar  
    51    21    55 1   
    52    22    23 ar  
    53    22    56 1   
    54    23    24 ar  
    55    23    57 1   
    56    24    58 1   
    57    25    62 1   
    58    26    59 1   
    59    27    61 1   
    60    29    60 1   
    61    46    61 1   
    62    47    61 1   
    63    48    61 1   
    64    49    62 1   
    65    50    62 1   
    66    51    62 1   
@<TRIPOS>SUBSTRUCTURE
     1 FVR         1 TEMP              0 ****  ****    0 ROOT
