@<TRIPOS>MOLECULE
FVR
   62    66     1     0     0
SMALL
No Charge or Current Charge


@<TRIPOS>ATOM
      1 C10         17.8540     6.2200    10.6270 c6         1 FVR       0.139800
      2 C11         18.7030     6.6390    11.8700 c6         1 FVR       0.238500
      3 C12         17.9080     7.6410    12.7410 c6         1 FVR      -0.081400
      4 C14         20.1100     4.6110    12.4680 cc         1 FVR       0.706800
      5 C16         21.2860     2.6230    13.1350 c          1 FVR       0.614600
      6 C18         22.1420     2.9680    12.0140 cc         1 FVR      -0.329600
      7 C19         21.9430     4.0550    11.2320 cd         1 FVR       0.185400
      8 C21         22.9290     4.1210    10.2380 cd         1 FVR      -0.190000
      9 C01         15.2040    11.7400    14.2870 ca         1 FVR       0.143100
     10 C02         14.6910    10.4390    14.0940 ca         1 FVR      -0.172500
     11 C03         15.4070     9.5070    13.3220 ca         1 FVR      -0.068000
     12 C04         16.6390     9.8600    12.7340 ca         1 FVR      -0.117300
     13 C05         17.1460    11.1600    12.9310 ca         1 FVR      -0.068000
     14 C06         16.4300    12.0910    13.7030 ca         1 FVR      -0.172500
     15 C07         17.4280     8.8470    11.8890 c6         1 FVR      -0.007400
     16 C08         16.6100     8.3480    10.6630 c6         1 FVR       0.165800
     17 C22         23.7730     3.0510    10.3930 cc         1 FVR      -0.142000
     18 C27         13.2860    12.4370    15.6720 c3         1 FVR       0.210900
     19 C28         12.8480    13.6970    16.4060 ca         1 FVR      -0.097300
     20 C29         12.0620    14.6650    15.7500 ca         1 FVR      -0.084500
     21 C30         11.6560    15.8280    16.4280 ca         1 FVR      -0.114500
     22 C31         12.0340    16.0310    17.7660 ca         1 FVR      -0.098000
     23 C32         12.8190    15.0700    18.4250 ca         1 FVR      -0.114500
     24 C33         13.2260    13.9070    17.7480 ca         1 FVR      -0.084500
     25 N09         17.3900     7.3940     9.8260 n3         1 FVR      -0.709600
     26 N13         19.0610     5.4620    12.6970 nu         1 FVR      -0.903400
     27 N15         20.2390     3.5220    13.3240 n          1 FVR      -0.352300
     28 N20         20.8960     4.9250    11.4460 nd         1 FVR      -0.667100
     29 N23         23.2830     2.3370    11.4960 na         1 FVR      -0.079000
     30 O17         21.4810     1.6360    13.8320 o          1 FVR      -0.565000
     31 O26         14.5480    12.6970    15.0330 os         1 FVR      -0.341100
     32 H101        16.9870     5.6350    10.9700 h1         1 FVR       0.039200
     33 H102        18.4600     5.5530     9.9970 h1         1 FVR       0.039200
     34 H111        19.6060     7.1540    11.5040 h1         1 FVR       0.103700
     35 H122        17.0440     7.1370    13.1940 hc         1 FVR       0.046200
     36 H121        18.5380     7.9980    13.5670 hc         1 FVR       0.046200
     37 H211        23.0090     4.8890     9.4760 ha         1 FVR       0.147000
     38 H021        13.7450    10.1340    14.5320 ha         1 FVR       0.122000
     39 H031        14.9990     8.5080    13.1850 ha         1 FVR       0.111500
     40 H051        18.0960    11.4530    12.4880 ha         1 FVR       0.111500
     41 H061        16.8290    13.0920    13.8500 ha         1 FVR       0.122000
     42 H071        18.3210     9.3490    11.4940 hc         1 FVR       0.068700
     43 H082        16.3150     9.2210    10.0620 h1         1 FVR       0.035200
     44 H081        15.6830     7.8700    11.0120 h1         1 FVR       0.035200
     45 H221        24.6510     2.7460     9.8340 h4         1 FVR       0.147000
     46 H242        19.5490     2.3850    15.0220 h1         1 FVR       0.055033
     47 H241        19.2970     4.1380    15.1310 h1         1 FVR       0.055033
     48 H243        18.2730     3.1430    14.0480 h1         1 FVR       0.055033
     49 H252        16.3900     7.8710     8.0070 h1         1 FVR       0.032033
     50 H253        17.2860     6.3380     7.9790 h1         1 FVR       0.032033
     51 H251        15.7420     6.4480     8.8570 h1         1 FVR       0.032033
     52 H272        12.5260    12.1630    14.9290 h1         1 FVR       0.040200
     53 H271        13.3790    11.6100    16.3880 h1         1 FVR       0.040200
     54 H291        11.7670    14.5170    14.7130 ha         1 FVR       0.114500
     55 H301        11.0490    16.5720    15.9160 ha         1 FVR       0.115000
     56 H311        11.7200    16.9310    18.2910 ha         1 FVR       0.113000
     57 H321        13.1140    15.2260    19.4610 ha         1 FVR       0.115000
     58 H331        13.8350    13.1690    18.2640 ha         1 FVR       0.114500
     59 H131        18.4660     5.2040    13.4740 hn         1 FVR       0.485000
     60 H231        23.6970     1.4840    11.8660 hn         1 FVR       0.363000
     61 C24         19.2870     3.2810    14.4450 c3         1 FVR       0.063300
     62 C25         16.6620     6.9910     8.6040 c3         1 FVR       0.156100
@<TRIPOS>BOND
     1     1     2 1   
     2     1    25 1   
     3     1    32 1   
     4     1    33 1   
     5     2     3 1   
     6     2    26 1   
     7     2    34 1   
     8     3    15 1   
     9     3    35 1   
    10     3    36 1   
    11     4    26 1   
    12     4    27 1   
    13     4    28 2   
    14     5     6 1   
    15     5    27 1   
    16     5    30 2   
    17     6     7 2   
    18     6    29 1   
    19     7     8 1   
    20     7    28 1   
    21     8    17 2   
    22     8    37 1   
    23     9    10 ar  
    24     9    14 ar  
    25     9    31 1   
    26    10    11 ar  
    27    10    38 1   
    28    11    12 ar  
    29    11    39 1   
    30    12    13 ar  
    31    12    15 1   
    32    13    14 ar  
    33    13    40 1   
    34    14    41 1   
    35    15    16 1   
    36    15    42 1   
    37    16    25 1   
    38    16    43 1   
    39    16    44 1   
    40    17    29 1   
    41    17    45 1   
    42    18    19 1   
    43    18    31 1   
    44    18    52 1   
    45    18    53 1   
    46    19    20 ar  
    47    19    24 ar  
    48    20    21 ar  
    49    20    54 1   
    50    21    22 ar  
    51    21    55 1   
    52    22    23 ar  
    53    22    56 1   
    54    23    24 ar  
    55    23    57 1   
    56    24    58 1   
    57    25    62 1   
    58    26    59 1   
    59    27    61 1   
    60    29    60 1   
    61    46    61 1   
    62    47    61 1   
    63    48    61 1   
    64    49    62 1   
    65    50    62 1   
    66    51    62 1   
@<TRIPOS>SUBSTRUCTURE
     1 FVR         1 TEMP              0 ****  ****    0 ROOT
