@<TRIPOS>MOLECULE
FVS
   88    91     1     0     0
SMALL
No Charge or Current Charge


@<TRIPOS>ATOM
      1 FAE        -14.2100     0.5530     0.9230 f          1 FVS      -0.096667
      2 CBM        -12.9380     0.7560     1.3400 c3         1 FVS       0.259000
      3 FAF        -12.8190     2.0560     1.6960 f          1 FVS      -0.096667
      4 FAG        -12.7440     0.0170     2.4580 f          1 FVS      -0.096667
      5 CBO        -11.9070     0.3800     0.2330 c3         1 FVS       0.135000
      6 FAH        -12.0830    -0.9180    -0.1150 f          1 FVS      -0.091500
      7 FAI        -12.1580     1.1170    -0.8760 f          1 FVS      -0.091500
      8 CBA        -10.4260     0.5940     0.6600 c3         1 FVS      -0.127400
      9 CAT         -9.3810     0.2270    -0.4250 c3         1 FVS      -0.048400
     10 CAY         -7.9300     0.4560     0.0460 c3         1 FVS      -0.041100
     11 SBI         -6.7190     0.0270    -1.2850 s4         1 FVS       0.168400
     12 OAB         -6.8110    -1.4660    -1.5090 o          1 FVS      -0.497000
     13 CAX         -5.1930     0.3410    -0.2880 c3         1 FVS      -0.033100
     14 CAS         -3.9210     0.0110    -1.0960 c3         1 FVS      -0.054400
     15 CAQ         -2.6240     0.2800    -0.3030 c3         1 FVS      -0.071400
     16 CAO         -1.3450    -0.0480    -1.1050 c3         1 FVS      -0.076400
     17 CAM         -0.0480     0.2210    -0.3110 c3         1 FVS      -0.073400
     18 CAN          1.2300    -0.1060    -1.1140 c3         1 FVS      -0.075400
     19 CAP          2.5270     0.1630    -0.3200 c3         1 FVS      -0.074400
     20 CAR          3.8050    -0.1640    -1.1230 c3         1 FVS      -0.075400
     21 CAU          5.1040     0.1010    -0.3230 c3         1 FVS      -0.073400
     22 CBH          6.4400    -0.0870    -1.1230 c6         1 FVS      -0.048700
     23 CBN          7.7210     0.3550    -0.3550 c6         1 FVS      -0.041700
     24 CBK          7.7760     1.8690    -0.0120 c5         1 FVS      -0.066700
     25 CAZ          7.6300     2.9280    -1.1360 c5         1 FVS      -0.065400
     26 CAV          8.2060     4.2260    -0.4600 c5         1 FVS      -0.116400
     27 CBG          8.8050     3.7590     0.9170 c5         1 FVS       0.171300
     28 OAD          9.9220     4.5530     1.3170 oh         1 FVS      -0.651000
     29 CBL          9.1650     2.2580     0.6500 c5         1 FVS      -0.038000
     30 CAA         10.4190     2.0990    -0.2870 c3         1 FVS      -0.074100
     31 CBC          9.4490     1.4040     1.9540 c6         1 FVS      -0.059400
     32 CBB          9.2970    -0.1200     1.6500 c6         1 FVS      -0.070400
     33 CBJ          7.9280    -0.4800     0.9610 c6         1 FVS      -0.004400
     34 CBF          7.7120    -2.0000     0.7340 ca         1 FVS      -0.101300
     35 CAK          8.0480    -2.9260     1.7490 ca         1 FVS      -0.075000
     36 CAJ          7.8360    -4.3020     1.5660 ca         1 FVS      -0.146000
     37 CBD          7.2730    -4.7750     0.3760 ca         1 FVS       0.138100
     38 OAC          7.0710    -6.1110     0.2040 oh         1 FVS      -0.535100
     39 CAL          6.9060    -3.8720    -0.6290 ca         1 FVS      -0.208000
     40 CBE          7.1080    -2.4880    -0.4570 ca         1 FVS      -0.029300
     41 CAW          6.6710    -1.5480    -1.5870 c6         1 FVS      -0.032100
     42 H1         -10.2840     1.6450     0.9450 hc         1 FVS       0.078200
     43 H2         -10.2230    -0.0020     1.5590 hc         1 FVS       0.078200
     44 H3          -9.5010    -0.8260    -0.7100 hc         1 FVS       0.067700
     45 H4          -9.5610     0.8250    -1.3270 hc         1 FVS       0.067700
     46 H5          -7.7810     1.5110     0.3090 h1         1 FVS       0.077200
     47 H6          -7.7100    -0.1660     0.9220 h1         1 FVS       0.077200
     48 H8          -5.1920     1.3990     0.0010 h1         1 FVS       0.075700
     49 H9          -5.2420    -0.2770     0.6170 h1         1 FVS       0.075700
     50 H10         -3.9490    -1.0430    -1.3980 hc         1 FVS       0.050700
     51 H11         -3.9140     0.6100    -2.0150 hc         1 FVS       0.050700
     52 H12         -2.5990     1.3340     0.0010 hc         1 FVS       0.039200
     53 H13         -2.6350    -0.3180     0.6180 hc         1 FVS       0.039200
     54 H14         -1.3700    -1.1020    -1.4080 hc         1 FVS       0.039200
     55 H15         -1.3350     0.5500    -2.0250 hc         1 FVS       0.039200
     56 H16         -0.0230     1.2750    -0.0080 hc         1 FVS       0.038200
     57 H17         -0.0590    -0.3770     0.6090 hc         1 FVS       0.038200
     58 H18          1.2050    -1.1610    -1.4160 hc         1 FVS       0.037200
     59 H19          1.2410     0.4910    -2.0340 hc         1 FVS       0.037200
     60 H20          2.5510     1.2170    -0.0170 hc         1 FVS       0.037700
     61 H21          2.5170    -0.4350     0.6000 hc         1 FVS       0.037700
     62 H22          3.7650    -1.2170    -1.4260 hc         1 FVS       0.035700
     63 H23          3.8180     0.4370    -2.0400 hc         1 FVS       0.035700
     64 H24          5.0430     1.1290     0.0530 hc         1 FVS       0.044200
     65 H25          5.0970    -0.5470     0.5610 hc         1 FVS       0.044200
     66 H26          6.3460     0.5380    -2.0220 hc         1 FVS       0.047700
     67 H27          8.5650     0.1400    -1.0230 hc         1 FVS       0.056700
     68 H28          6.9730     2.0170     0.7210 hc         1 FVS       0.044700
     69 H29          8.1950     2.6530    -2.0340 hc         1 FVS       0.044700
     70 H30          6.5860     3.0530    -1.4440 hc         1 FVS       0.044700
     71 H31          8.9650     4.6880    -1.1010 hc         1 FVS       0.046200
     72 H32          7.4250     4.9800    -0.3090 hc         1 FVS       0.046200
     73 H33          8.0260     3.8190     1.6910 h1         1 FVS       0.025700
     74 H34          9.5940     5.4740     1.4080 ho         1 FVS       0.441000
     75 H35         10.3590     2.7050    -1.1970 hc         1 FVS       0.037033
     76 H36         11.3340     2.4090     0.2310 hc         1 FVS       0.037033
     77 H37         10.5770     1.0650    -0.6090 hc         1 FVS       0.037033
     78 H38         10.4460     1.6220     2.3600 hc         1 FVS       0.044700
     79 H39          8.7290     1.6840     2.7360 hc         1 FVS       0.044700
     80 H40         10.1290    -0.4710     1.0250 hc         1 FVS       0.043200
     81 H41          9.4010    -0.6510     2.6040 hc         1 FVS       0.043200
     82 H42          7.1470    -0.1680     1.6670 hc         1 FVS       0.052700
     83 H43          8.4650    -2.5930     2.6940 ha         1 FVS       0.112000
     84 H44          8.1060    -5.0020     2.3540 ha         1 FVS       0.128000
     85 H45          6.6690    -6.2490    -0.6800 ho         1 FVS       0.462000
     86 H46          6.4580    -4.2380    -1.5490 ha         1 FVS       0.109000
     87 H47          5.7780    -1.9430    -2.0870 hc         1 FVS       0.049700
     88 H48          7.4540    -1.5560    -2.3580 hc         1 FVS       0.049700
@<TRIPOS>BOND
     1     1     2 1   
     2     2     3 1   
     3     2     4 1   
     4     2     5 1   
     5     5     6 1   
     6     5     7 1   
     7     5     8 1   
     8     8     9 1   
     9     8    42 1   
    10     8    43 1   
    11     9    10 1   
    12     9    44 1   
    13     9    45 1   
    14    10    11 1   
    15    10    46 1   
    16    10    47 1   
    17    11    12 2   
    18    11    13 1   
    19    13    14 1   
    20    13    48 1   
    21    13    49 1   
    22    14    15 1   
    23    14    50 1   
    24    14    51 1   
    25    15    16 1   
    26    15    52 1   
    27    15    53 1   
    28    16    17 1   
    29    16    54 1   
    30    16    55 1   
    31    17    18 1   
    32    17    56 1   
    33    17    57 1   
    34    18    19 1   
    35    18    58 1   
    36    18    59 1   
    37    19    20 1   
    38    19    60 1   
    39    19    61 1   
    40    20    21 1   
    41    20    62 1   
    42    20    63 1   
    43    21    22 1   
    44    21    64 1   
    45    21    65 1   
    46    22    23 1   
    47    22    41 1   
    48    22    66 1   
    49    23    24 1   
    50    23    33 1   
    51    23    67 1   
    52    24    25 1   
    53    24    29 1   
    54    24    68 1   
    55    25    26 1   
    56    25    69 1   
    57    25    70 1   
    58    26    27 1   
    59    26    71 1   
    60    26    72 1   
    61    27    28 1   
    62    27    29 1   
    63    27    73 1   
    64    28    74 1   
    65    29    30 1   
    66    29    31 1   
    67    30    75 1   
    68    30    76 1   
    69    30    77 1   
    70    31    32 1   
    71    31    78 1   
    72    31    79 1   
    73    32    33 1   
    74    32    80 1   
    75    32    81 1   
    76    33    34 1   
    77    33    82 1   
    78    34    35 ar  
    79    34    40 ar  
    80    35    36 ar  
    81    35    83 1   
    82    36    37 ar  
    83    36    84 1   
    84    37    38 1   
    85    37    39 ar  
    86    38    85 1   
    87    39    40 ar  
    88    39    86 1   
    89    40    41 1   
    90    41    87 1   
    91    41    88 1   
@<TRIPOS>SUBSTRUCTURE
     1 FVS         1 TEMP              0 ****  ****    0 ROOT
