@<TRIPOS>MOLECULE
FVS
   88    91     1     0     0
SMALL
bcc


@<TRIPOS>ATOM
      1 FAE        -13.9720     0.5750     0.4670 f          1 FVS      -0.217967
      2 CBM        -12.7670     0.5720     1.0300 c3         1 FVS       0.622900
      3 FAF        -12.6780     1.6380     1.8230 f          1 FVS      -0.217967
      4 FAG        -12.6650    -0.5200     1.7850 f          1 FVS      -0.217967
      5 CBO        -11.6550     0.5970    -0.0340 c3         1 FVS       0.377600
      6 FAH        -11.8580    -0.4810    -0.8320 f          1 FVS      -0.212800
      7 FAI        -11.8760     1.6960    -0.8000 f          1 FVS      -0.212800
      8 CBA        -10.2570     0.6020     0.5310 c3         1 FVS      -0.127400
      9 CAT         -9.1790     0.6070    -0.5490 c3         1 FVS      -0.048400
     10 CAY         -7.8010     0.6250     0.0950 c3         1 FVS      -0.041100
     11 SBI         -6.5250     0.6190    -1.1960 s4         1 FVS       0.141600
     12 OAB         -6.6650    -0.6950    -1.9340 o          1 FVS      -0.470200
     13 CAX         -5.0820     0.4650    -0.1090 c3         1 FVS      -0.033100
     14 CAS         -3.8220     0.2960    -0.9420 c3         1 FVS      -0.054400
     15 CAQ         -2.5720     0.2190    -0.0720 c3         1 FVS      -0.071400
     16 CAO         -1.3020     0.0560    -0.8970 c3         1 FVS      -0.076400
     17 CAM         -0.0340     0.0170    -0.0520 c3         1 FVS      -0.073400
     18 CAN          1.2290    -0.1360    -0.8890 c3         1 FVS      -0.075400
     19 CAP          2.5130    -0.1100    -0.0690 c3         1 FVS      -0.074400
     20 CAR          3.7630    -0.2570    -0.9260 c3         1 FVS      -0.075400
     21 CAU          5.0590    -0.1460    -0.1310 c3         1 FVS      -0.073400
     22 CBH          6.3110    -0.2650    -1.0050 c6         1 FVS      -0.048700
     23 CBN          7.5870     0.2710    -0.3520 c6         1 FVS      -0.041700
     24 CBK          7.5580     1.7560    -0.0390 c5         1 FVS      -0.066700
     25 CAZ          7.1640     2.7520    -1.1290 c5         1 FVS      -0.065400
     26 CAV          7.7340     4.0960    -0.6190 c5         1 FVS      -0.116400
     27 CBG          8.5320     3.7560     0.6610 c5         1 FVS       0.148100
     28 OAD          9.6610     4.5650     0.8850 oh         1 FVS      -0.588800
     29 CBL          8.9020     2.2810     0.4840 c5         1 FVS      -0.038000
     30 CAA         10.0330     2.1470    -0.5410 c3         1 FVS      -0.074100
     31 CBC          9.2480     1.5280     1.7640 c6         1 FVS      -0.059400
     32 CBB          9.2280     0.0090     1.5540 c6         1 FVS      -0.070400
     33 CBJ          7.9090    -0.4860     0.9440 c6         1 FVS      -0.004400
     34 CBF          7.8600    -1.9880     0.7390 ca         1 FVS      -0.101300
     35 CAK          8.4120    -2.8610     1.6790 ca         1 FVS      -0.093000
     36 CAJ          8.3560    -4.2370     1.5400 ca         1 FVS      -0.164000
     37 CBD          7.7240    -4.7850     0.4280 ca         1 FVS       0.138100
     38 OAC          7.6880    -6.1320     0.3160 oh         1 FVS      -0.496100
     39 CAL          7.1550    -3.9360    -0.5100 ca         1 FVS      -0.226000
     40 CBE          7.2130    -2.5500    -0.3670 ca         1 FVS      -0.029300
     41 CAW          6.5850    -1.7000    -1.4430 c6         1 FVS      -0.032100
     42 H1         -10.1430     1.4780     1.1740 hc         1 FVS       0.078200
     43 H2         -10.1340    -0.2740     1.1720 hc         1 FVS       0.078200
     44 H3          -9.2670    -0.2780    -1.1800 hc         1 FVS       0.067700
     45 H4          -9.2900     1.4820    -1.1930 hc         1 FVS       0.067700
     46 H5          -7.6490     1.5280     0.6900 h1         1 FVS       0.077200
     47 H6          -7.6460    -0.2470     0.7350 h1         1 FVS       0.077200
     48 H8          -5.0440     1.3770     0.4920 h1         1 FVS       0.075700
     49 H9          -5.2420    -0.3870     0.5570 h1         1 FVS       0.075700
     50 H10         -3.9050    -0.6110    -1.5470 hc         1 FVS       0.050700
     51 H11         -3.7250     1.1330    -1.6390 hc         1 FVS       0.050700
     52 H12         -2.4980     1.1240     0.5390 hc         1 FVS       0.039200
     53 H13         -2.6660    -0.6170     0.6290 hc         1 FVS       0.039200
     54 H14         -1.3700    -0.8600    -1.4940 hc         1 FVS       0.039200
     55 H15         -1.2290     0.8800    -1.6150 hc         1 FVS       0.039200
     56 H16          0.0330     0.9350     0.5430 hc         1 FVS       0.038200
     57 H17         -0.0990    -0.8060     0.6680 hc         1 FVS       0.038200
     58 H18          1.1790    -1.0730    -1.4550 hc         1 FVS       0.037200
     59 H19          1.2660     0.6650    -1.6360 hc         1 FVS       0.037200
     60 H20          2.5640     0.8300     0.4920 hc         1 FVS       0.037700
     61 H21          2.4860    -0.9080     0.6810 hc         1 FVS       0.037700
     62 H22          3.7230    -1.2160    -1.4530 hc         1 FVS       0.035700
     63 H23          3.7570     0.5130    -1.7050 hc         1 FVS       0.035700
     64 H24          5.0610     0.8200     0.3850 hc         1 FVS       0.044200
     65 H25          5.0680    -0.9040     0.6610 hc         1 FVS       0.044200
     66 H26          6.1320     0.3220    -1.9130 hc         1 FVS       0.047700
     67 H27          8.3960     0.0830    -1.0730 hc         1 FVS       0.056700
     68 H28          6.8400     1.8930     0.7830 hc         1 FVS       0.044700
     69 H29          7.6050     2.4770    -2.0910 hc         1 FVS       0.044700
     70 H30          6.0850     2.7890    -1.2800 hc         1 FVS       0.044700
     71 H31          8.3960     4.5530    -1.3580 hc         1 FVS       0.046200
     72 H32          6.9470     4.8240    -0.4130 hc         1 FVS       0.046200
     73 H33          7.8510     3.8220     1.5230 h1         1 FVS       0.025700
     74 H34          9.3590     5.4670     1.0230 ho         1 FVS       0.402000
     75 H35          9.8000     2.6390    -1.4860 hc         1 FVS       0.037033
     76 H36         10.9510     2.5920    -0.1580 hc         1 FVS       0.037033
     77 H37         10.2580     1.1070    -0.7740 hc         1 FVS       0.037033
     78 H38         10.2240     1.8320     2.1540 hc         1 FVS       0.044700
     79 H39          8.5100     1.7810     2.5350 hc         1 FVS       0.044700
     80 H40         10.0620    -0.3050     0.9190 hc         1 FVS       0.043200
     81 H41          9.4000    -0.4650     2.5220 hc         1 FVS       0.043200
     82 H42          7.1170    -0.2340     1.6660 hc         1 FVS       0.052700
     83 H43          8.8990    -2.4640     2.5600 ha         1 FVS       0.130000
     84 H44          8.7960    -4.8820     2.2910 ha         1 FVS       0.146000
     85 H45          7.2270    -6.3880    -0.4900 ho         1 FVS       0.423000
     86 H46          6.6500    -4.3530    -1.3770 ha         1 FVS       0.127000
     87 H47          5.6700    -2.1840    -1.7960 hc         1 FVS       0.049700
     88 H48          7.2570    -1.6830    -2.3080 hc         1 FVS       0.049700
@<TRIPOS>BOND
     1     1     2 1   
     2     2     3 1   
     3     2     4 1   
     4     2     5 1   
     5     5     6 1   
     6     5     7 1   
     7     5     8 1   
     8     8     9 1   
     9     8    42 1   
    10     8    43 1   
    11     9    10 1   
    12     9    44 1   
    13     9    45 1   
    14    10    11 1   
    15    10    46 1   
    16    10    47 1   
    17    11    12 2   
    18    11    13 1   
    19    13    14 1   
    20    13    48 1   
    21    13    49 1   
    22    14    15 1   
    23    14    50 1   
    24    14    51 1   
    25    15    16 1   
    26    15    52 1   
    27    15    53 1   
    28    16    17 1   
    29    16    54 1   
    30    16    55 1   
    31    17    18 1   
    32    17    56 1   
    33    17    57 1   
    34    18    19 1   
    35    18    58 1   
    36    18    59 1   
    37    19    20 1   
    38    19    60 1   
    39    19    61 1   
    40    20    21 1   
    41    20    62 1   
    42    20    63 1   
    43    21    22 1   
    44    21    64 1   
    45    21    65 1   
    46    22    23 1   
    47    22    41 1   
    48    22    66 1   
    49    23    24 1   
    50    23    33 1   
    51    23    67 1   
    52    24    25 1   
    53    24    29 1   
    54    24    68 1   
    55    25    26 1   
    56    25    69 1   
    57    25    70 1   
    58    26    27 1   
    59    26    71 1   
    60    26    72 1   
    61    27    28 1   
    62    27    29 1   
    63    27    73 1   
    64    28    74 1   
    65    29    30 1   
    66    29    31 1   
    67    30    75 1   
    68    30    76 1   
    69    30    77 1   
    70    31    32 1   
    71    31    78 1   
    72    31    79 1   
    73    32    33 1   
    74    32    80 1   
    75    32    81 1   
    76    33    34 1   
    77    33    82 1   
    78    34    35 ar  
    79    34    40 ar  
    80    35    36 ar  
    81    35    83 1   
    82    36    37 ar  
    83    36    84 1   
    84    37    38 1   
    85    37    39 ar  
    86    38    85 1   
    87    39    40 ar  
    88    39    86 1   
    89    40    41 1   
    90    41    87 1   
    91    41    88 1   
@<TRIPOS>SUBSTRUCTURE
     1 FVS         1 TEMP              0 ****  ****    0 ROOT
