@<TRIPOS>MOLECULE
FVT
   17    16     1     0     0
SMALL
abcg2


@<TRIPOS>ATOM
      1 C1          -1.0630    -0.5350     0.0050 c3         1 FVT      -0.202400
      2 C3           1.4630    -0.1950    -0.0140 c          1 FVT       0.560100
      3 O2           1.6350    -1.3930    -0.0340 o          1 FVT      -0.530100
      4 C4           2.6280     0.7690    -0.0300 c3         1 FVT       0.028800
      5 N            3.9030     0.1000     0.0870 n8         1 FVT      -0.980200
      6 C            0.0980     0.4410     0.0040 c3         1 FVT      -0.149400
      7 C2          -2.4580     0.1190     0.0130 c          1 FVT       0.717000
      8 O           -2.5230     1.3630    -0.0260 o          1 FVT      -0.741500
      9 O1          -3.4240    -0.6720     0.0540 o          1 FVT      -0.741500
     10 H1          -1.0020    -1.1920    -0.8680 hc         1 FVT       0.031200
     11 H2          -0.9940    -1.2020     0.8690 hc         1 FVT       0.031200
     12 H3           2.5080     1.3920    -0.9310 h1         1 FVT       0.041700
     13 H4           2.5010     1.4580     0.8100 h1         1 FVT       0.041700
     14 H5           4.0740    -0.4620    -0.7370 hn         1 FVT       0.387000
     15 H6           4.6380     0.7940     0.1070 hn         1 FVT       0.387000
     16 H8           0.0350     1.1200    -0.8530 hc         1 FVT       0.060200
     17 H9           0.0510     1.1010     0.8770 hc         1 FVT       0.060200
@<TRIPOS>BOND
     1     1     6 1   
     2     1     7 1   
     3     1    10 1   
     4     1    11 1   
     5     2     3 2   
     6     2     4 1   
     7     2     6 1   
     8     4     5 1   
     9     4    12 1   
    10     4    13 1   
    11     5    14 1   
    12     5    15 1   
    13     6    16 1   
    14     6    17 1   
    15     7     8 1   
    16     7     9 1   
@<TRIPOS>SUBSTRUCTURE
     1 FVT         1 TEMP              0 ****  ****    0 ROOT
