@<TRIPOS>MOLECULE
FVT
   17    16     1     0     0
SMALL
No Charge or Current Charge


@<TRIPOS>ATOM
      1 C1          -0.9000    -0.3050    -0.4320 c3         1 FVT      -0.202400
      2 C3           1.4680    -0.2960     0.5530 c          1 FVT       0.560100
      3 O2           1.8040    -1.4020     0.9690 o          1 FVT      -0.530100
      4 C4           2.4650     0.6730    -0.1730 c3         1 FVT       0.028800
      5 N            3.9330     0.3460    -0.1070 n8         1 FVT      -0.980200
      6 C            0.0240     0.2110     0.7080 c3         1 FVT      -0.149400
      7 C2          -2.3320     0.2310    -0.2540 c          1 FVT       0.717000
      8 O           -2.6080     1.3100    -0.7560 o          1 FVT      -0.741500
      9 O1          -3.1090    -0.4160     0.4300 o          1 FVT      -0.741500
     10 H1          -0.4670     0.0730    -1.3660 hc         1 FVT       0.031200
     11 H2          -0.8930    -1.3990    -0.3540 hc         1 FVT       0.031200
     12 H3           2.1610     0.7140    -1.2280 h1         1 FVT       0.041700
     13 H4           2.3180     1.6760     0.2490 h1         1 FVT       0.041700
     14 H5           4.0990    -0.5780    -0.5280 hn         1 FVT       0.387000
     15 H6           4.4600     0.9910    -0.7110 hn         1 FVT       0.387000
     16 H8           0.0210     1.3070     0.6620 hc         1 FVT       0.060200
     17 H9          -0.3750    -0.1290     1.6710 hc         1 FVT       0.060200
@<TRIPOS>BOND
     1     1     6 1   
     2     1     7 1   
     3     1    10 1   
     4     1    11 1   
     5     2     3 2   
     6     2     4 1   
     7     2     6 1   
     8     4     5 1   
     9     4    12 1   
    10     4    13 1   
    11     5    14 1   
    12     5    15 1   
    13     6    16 1   
    14     6    17 1   
    15     7     8 1   
    16     7     9 1   
@<TRIPOS>SUBSTRUCTURE
     1 FVT         1 TEMP              0 ****  ****    0 ROOT
