@<TRIPOS>MOLECULE
FVV
   37    40     1     0     0
SMALL
No Charge or Current Charge


@<TRIPOS>ATOM
      1 C10         -4.3150    -0.4820    -0.5910 ca         1 FVV       0.176000
      2 C13          0.6600    -2.3270     0.3410 ca         1 FVV      -0.110000
      3 C15         -2.9170    -1.0400     1.3190 ca         1 FVV      -0.067000
      4 C17         -3.3730     0.4690    -1.0100 ca         1 FVV      -0.155000
      5 C20          1.4120    -3.2780    -0.3830 ca         1 FVV      -0.113000
      6 C21          2.5510    -2.8820    -1.1260 ca         1 FVV      -0.111000
      7 C01          1.3190     1.2300     0.5290 cc         1 FVV       0.602300
      8 N02          0.5380     0.1370     0.9000 na         1 FVV      -0.227600
      9 N03          2.3420     0.7560    -0.2800 na         1 FVV      -0.271600
     10 C04          1.0820    -0.9900     0.2990 ca         1 FVV      -0.023200
     11 C05          2.1910    -0.6080    -0.4260 ca         1 FVV      -0.019200
     12 N06          1.1710     2.4770     0.8700 n2         1 FVV      -0.727900
     13 C08          3.4230     1.5740    -0.8430 c6         1 FVV       0.097600
     14 C09         -1.9610    -0.0900     0.9030 ca         1 FVV      -0.131300
     15 F11         -5.4440    -0.6710    -1.3080 f          1 FVV      -0.180000
     16 C12          2.1270     3.4690     0.3140 c6         1 FVV       0.140800
     17 C14          2.9540    -1.5300    -1.1550 ca         1 FVV      -0.119000
     18 C16         -2.1970     0.6660    -0.2640 ca         1 FVV      -0.067000
     19 C18         -4.0920    -1.2350     0.5710 ca         1 FVV      -0.155000
     20 C19          3.5300     2.8680     0.0050 c6         1 FVV      -0.127400
     21 H2          -2.7510    -1.6280     2.2200 ha         1 FVV       0.123000
     22 H3          -3.5540     1.0510    -1.9100 ha         1 FVV       0.132000
     23 H4           1.1120    -4.3240    -0.3720 ha         1 FVV       0.115000
     24 H5           3.1190    -3.6270    -1.6800 ha         1 FVV       0.114000
     25 H9           4.3740     1.0230    -0.8270 h1         1 FVV       0.049200
     26 H10          3.1770     1.8230    -1.8850 h1         1 FVV       0.049200
     27 H11          1.6980     3.8790    -0.6130 h1         1 FVV       0.050200
     28 H12          2.2320     4.3040     1.0230 h1         1 FVV       0.050200
     29 H13          3.8260    -1.2180    -1.7260 ha         1 FVV       0.119000
     30 H14         -1.4730     1.4080    -0.5950 ha         1 FVV       0.123000
     31 H15         -4.8280    -1.9680     0.8910 ha         1 FVV       0.132000
     32 H16          4.0320     2.6340     0.9530 hc         1 FVV       0.057700
     33 H17          4.1590     3.6080    -0.5070 hc         1 FVV       0.057700
     34 C07         -0.6850     0.1150     1.7180 c3         1 FVV       0.145900
     35 H1          -0.2180    -2.6270     0.9080 ha         1 FVV       0.121000
     36 H7          -0.5860    -0.6820     2.4660 h1         1 FVV       0.073700
     37 H8          -0.7630     1.0630     2.2640 h1         1 FVV       0.073700
@<TRIPOS>BOND
     1     1     4 ar  
     2     1    15 1   
     3     1    19 ar  
     4     2     5 ar  
     5     2    10 ar  
     6     2    35 1   
     7     3    14 ar  
     8     3    19 ar  
     9     3    21 1   
    10     4    18 ar  
    11     4    22 1   
    12     5     6 ar  
    13     5    23 1   
    14     6    17 ar  
    15     6    24 1   
    16     7     8 1   
    17     7     9 1   
    18     7    12 2   
    19     8    10 1   
    20     8    34 1   
    21     9    11 1   
    22     9    13 1   
    23    10    11 ar  
    24    11    17 ar  
    25    12    16 1   
    26    13    20 1   
    27    13    25 1   
    28    13    26 1   
    29    14    18 ar  
    30    14    34 1   
    31    16    20 1   
    32    16    27 1   
    33    16    28 1   
    34    17    29 1   
    35    18    30 1   
    36    19    31 1   
    37    20    32 1   
    38    20    33 1   
    39    34    36 1   
    40    34    37 1   
@<TRIPOS>SUBSTRUCTURE
     1 FVV         1 TEMP              0 ****  ****    0 ROOT
