@<TRIPOS>MOLECULE
FVV
   37    40     1     0     0
SMALL
bcc


@<TRIPOS>ATOM
      1 C10         -4.1770    -0.3510    -0.6090 ca         1 FVV       0.140900
      2 C13          0.6970    -2.3880     0.4190 ca         1 FVV      -0.128000
      3 C15         -2.7540    -1.0760     1.1540 ca         1 FVV      -0.085000
      4 C17         -3.3380     0.7120    -0.8880 ca         1 FVV      -0.173000
      5 C20          1.4590    -3.3270    -0.2810 ca         1 FVV      -0.131000
      6 C21          2.5610    -2.9430    -1.0330 ca         1 FVV      -0.129000
      7 C01          1.2970     1.1750     0.4990 cc         1 FVV       0.602300
      8 N02          0.5630     0.0800     0.9080 na         1 FVV      -0.198300
      9 N03          2.3020     0.6880    -0.3050 na         1 FVV      -0.242300
     10 C04          1.0800    -1.0640     0.3370 ca         1 FVV      -0.023200
     11 C05          2.1920    -0.6780    -0.4270 ca         1 FVV      -0.019200
     12 N06          1.0590     2.3850     0.8180 n2         1 FVV      -0.727900
     13 C08          3.2940     1.5680    -0.8820 c6         1 FVV       0.068300
     14 C09         -1.8870    -0.0210     0.9020 ca         1 FVV      -0.131300
     15 F11         -5.2890    -0.5110    -1.3460 f          1 FVV      -0.144900
     16 C12          1.9740     3.3650     0.2620 c6         1 FVV       0.140800
     17 C14          2.9460    -1.6020    -1.1190 ca         1 FVV      -0.137000
     18 C16         -2.1930     0.8710    -0.1240 ca         1 FVV      -0.085000
     19 C18         -3.9100    -1.2510     0.4030 ca         1 FVV      -0.173000
     20 C19          3.3720     2.8170    -0.0160 c6         1 FVV      -0.127400
     21 H2          -2.5380    -1.7780     1.9500 ha         1 FVV       0.141000
     22 H3          -3.5760     1.4070    -1.6830 ha         1 FVV       0.150000
     23 H4           1.1790    -4.3710    -0.2340 ha         1 FVV       0.133000
     24 H5           3.1320    -3.6900    -1.5670 ha         1 FVV       0.132000
     25 H9           4.2530     1.0500    -0.9140 h1         1 FVV       0.049200
     26 H10          3.0190     1.8220    -1.9100 h1         1 FVV       0.049200
     27 H11          1.5590     3.7780    -0.6660 h1         1 FVV       0.050200
     28 H12          2.0480     4.2060     0.9550 h1         1 FVV       0.050200
     29 H13          3.8040    -1.3070    -1.7090 ha         1 FVV       0.137000
     30 H14         -1.5320     1.7050    -0.3250 ha         1 FVV       0.141000
     31 H15         -4.5850    -2.0730     0.6010 ha         1 FVV       0.150000
     32 H16          3.8660     2.5710     0.9270 hc         1 FVV       0.057700
     33 H17          3.9820     3.5690    -0.5170 hc         1 FVV       0.057700
     34 C07         -0.6290     0.1600     1.7130 c3         1 FVV       0.116600
     35 H1          -0.1630    -2.6980     0.9980 ha         1 FVV       0.139000
     36 H7          -0.5770    -0.5880     2.5080 h1         1 FVV       0.073700
     37 H8          -0.6210     1.1380     2.1950 h1         1 FVV       0.073700
@<TRIPOS>BOND
     1     1     4 ar  
     2     1    15 1   
     3     1    19 ar  
     4     2     5 ar  
     5     2    10 ar  
     6     2    35 1   
     7     3    14 ar  
     8     3    19 ar  
     9     3    21 1   
    10     4    18 ar  
    11     4    22 1   
    12     5     6 ar  
    13     5    23 1   
    14     6    17 ar  
    15     6    24 1   
    16     7     8 1   
    17     7     9 1   
    18     7    12 2   
    19     8    10 1   
    20     8    34 1   
    21     9    11 1   
    22     9    13 1   
    23    10    11 ar  
    24    11    17 ar  
    25    12    16 1   
    26    13    20 1   
    27    13    25 1   
    28    13    26 1   
    29    14    18 ar  
    30    14    34 1   
    31    16    20 1   
    32    16    27 1   
    33    16    28 1   
    34    17    29 1   
    35    18    30 1   
    36    19    31 1   
    37    20    32 1   
    38    20    33 1   
    39    34    36 1   
    40    34    37 1   
@<TRIPOS>SUBSTRUCTURE
     1 FVV         1 TEMP              0 ****  ****    0 ROOT
