@<TRIPOS>MOLECULE
FVW
   51    51     1     0     0
SMALL
bcc


@<TRIPOS>ATOM
      1 OBD          6.9580    -2.9900     2.0670 o          1 FVW      -0.881800
      2 CAN          6.9950    -1.7440     2.1060 c          1 FVW       0.920600
      3 OBE          7.6860    -1.0520     2.8850 o          1 FVW      -0.881800
      4 CAL          6.1120    -0.9630     1.1180 c3         1 FVW      -0.197400
      5 CAK          5.3400    -1.8080     0.1170 c3         1 FVW      -0.049400
      6 CAG          4.5450    -0.9890    -0.9010 c3         1 FVW      -0.035300
      7 CAJ          3.9330    -1.9260    -1.9700 c          1 FVW       0.923600
      8 OBC          4.7440    -2.3900    -2.8000 o          1 FVW      -0.866300
      9 OBB          2.7140    -2.1660    -1.9020 o          1 FVW      -0.866300
     10 NAF          3.5610    -0.1840    -0.2130 ns         1 FVW      -0.518900
     11 CAE          2.8260     0.7270    -0.9080 c          1 FVW       0.782100
     12 OAH          3.1540     1.1230    -2.0230 o          1 FVW      -0.665100
     13 N            1.6950     1.1640    -0.2800 ns         1 FVW      -0.543900
     14 CA           1.0810     2.4020    -0.7010 c3         1 FVW      -0.029300
     15 C            1.9730     3.6470    -0.4620 c          1 FVW       0.916600
     16 OXT          1.5730     4.7000    -1.0000 o          1 FVW      -0.845300
     17 O            2.9820     3.5070     0.2520 o          1 FVW      -0.845300
     18 CB          -0.2600     2.5770     0.0120 c3         1 FVW      -0.065400
     19 CAD         -1.2600     1.4600    -0.2610 c3         1 FVW      -0.071400
     20 CAM         -2.5830     1.7360     0.4360 c3         1 FVW      -0.146400
     21 CAO         -3.6150     0.6510     0.2370 c          1 FVW       0.665100
     22 OAP         -3.4090    -0.3330    -0.4540 o          1 FVW      -0.557100
     23 NAQ         -4.8070     0.8350     0.8750 n          1 FVW      -0.425000
     24 CAY         -5.1060     2.0270     1.6570 c3         1 FVW       0.106300
     25 CAR         -5.8220    -0.1330     0.7060 ca         1 FVW      -0.049700
     26 CAS         -5.6690    -1.4410     1.1610 ca         1 FVW      -0.054000
     27 CAT         -6.7010    -2.3430     0.9900 ca         1 FVW      -0.272300
     28 CAU         -7.8460    -1.8680     0.3730 ca         1 FVW       0.607500
     29 FAX         -8.8730    -2.7030     0.1950 f          1 FVW      -0.246200
     30 NAV         -8.0230    -0.6540    -0.0590 nb         1 FVW      -0.712000
     31 CAW         -7.0180     0.2050     0.0950 ca         1 FVW       0.406200
     32 H2           5.4230    -0.3410     1.6990 hc         1 FVW       0.021700
     33 H3           6.7470    -0.2500     0.5800 hc         1 FVW       0.021700
     34 H4           6.0320    -2.4430    -0.4370 hc         1 FVW       0.035200
     35 H5           4.6610    -2.4880     0.6430 hc         1 FVW       0.035200
     36 H6           5.2440    -0.3160    -1.4060 h1         1 FVW       0.057700
     37 H8           3.1020    -0.6350     0.5640 hn         1 FVW       0.270500
     38 H9           1.6530     0.9940     0.7140 hn         1 FVW       0.261500
     39 H10          0.8800     2.3360    -1.7740 h1         1 FVW       0.063700
     40 H12         -0.0890     2.6620     1.0930 hc         1 FVW       0.025700
     41 H13         -0.6820     3.5320    -0.3050 hc         1 FVW       0.025700
     42 H14         -1.4160     1.3700    -1.3390 hc         1 FVW       0.066700
     43 H15         -0.8570     0.5040     0.0760 hc         1 FVW       0.066700
     44 H16         -2.4160     1.8720     1.5100 hc         1 FVW       0.047200
     45 H17         -3.0010     2.6880     0.0890 hc         1 FVW       0.047200
     46 H18         -5.1320     2.9270     1.0420 h1         1 FVW       0.036033
     47 H19         -6.0790     1.9080     2.1240 h1         1 FVW       0.036033
     48 H20         -4.3760     2.1700     2.4540 h1         1 FVW       0.036033
     49 H21         -4.7590    -1.7490     1.6560 ha         1 FVW       0.166000
     50 H22         -6.6250    -3.3660     1.3310 ha         1 FVW       0.155000
     51 H23         -7.1780     1.2100    -0.2800 h4         1 FVW       0.025100
@<TRIPOS>BOND
     1     1     2 1   
     2     2     3 1   
     3     2     4 1   
     4     4     5 1   
     5     4    32 1   
     6     4    33 1   
     7     5     6 1   
     8     5    34 1   
     9     5    35 1   
    10     6     7 1   
    11     6    10 1   
    12     6    36 1   
    13     7     8 1   
    14     7     9 1   
    15    10    11 1   
    16    10    37 1   
    17    11    12 2   
    18    11    13 1   
    19    13    14 1   
    20    13    38 1   
    21    14    15 1   
    22    14    18 1   
    23    14    39 1   
    24    15    16 1   
    25    15    17 1   
    26    18    19 1   
    27    18    40 1   
    28    18    41 1   
    29    19    20 1   
    30    19    42 1   
    31    19    43 1   
    32    20    21 1   
    33    20    44 1   
    34    20    45 1   
    35    21    22 2   
    36    21    23 1   
    37    23    24 1   
    38    23    25 1   
    39    24    46 1   
    40    24    47 1   
    41    24    48 1   
    42    25    26 ar  
    43    25    31 ar  
    44    26    27 ar  
    45    26    49 1   
    46    27    28 ar  
    47    27    50 1   
    48    28    29 1   
    49    28    30 ar  
    50    30    31 ar  
    51    31    51 1   
@<TRIPOS>SUBSTRUCTURE
     1 FVW         1 TEMP              0 ****  ****    0 ROOT
