@<TRIPOS>MOLECULE
FVW
   51    51     1     0     0
SMALL
No Charge or Current Charge


@<TRIPOS>ATOM
      1 OBD          7.6700    -0.3640    -0.8200 o          1 FVW      -0.776500
      2 CAN          6.8240    -0.9930    -1.4350 c          1 FVW       0.710000
      3 OBE          7.0940    -1.8020    -2.3100 o          1 FVW      -0.776500
      4 CAL          5.3450    -0.8000    -1.0510 c3         1 FVW      -0.197400
      5 CAK          4.9480    -1.8010     0.0660 c3         1 FVW      -0.049400
      6 CAG          3.4440    -1.7780     0.4530 c3         1 FVW      -0.035300
      7 CAJ          3.0990    -2.9320     1.4480 c          1 FVW       0.713000
      8 OBC          2.3760    -3.8380     1.0560 o          1 FVW      -0.761000
      9 OBB          3.4970    -2.8530     2.6040 o          1 FVW      -0.761000
     10 NAF          3.0280    -0.4710     1.0180 ns         1 FVW      -0.451900
     11 CAE          2.4060     0.5350     0.3210 c          1 FVW       0.648100
     12 OAH          2.0940     0.4610    -0.8570 o          1 FVW      -0.665100
     13 N            2.1680     1.6360     1.1060 ns         1 FVW      -0.476900
     14 CA           1.4910     2.8790     0.6610 c3         1 FVW      -0.029300
     15 C            2.2180     4.1360     1.2390 c          1 FVW       0.706000
     16 OXT          2.6440     4.9700     0.4520 o          1 FVW      -0.740000
     17 O            2.4000     4.2070     2.4480 o          1 FVW      -0.740000
     18 CB          -0.0190     2.8850     1.0200 c3         1 FVW      -0.065400
     19 CAD         -0.8480     1.7760     0.3320 c3         1 FVW      -0.071400
     20 CAM         -2.3590     1.8660     0.6620 c3         1 FVW      -0.146400
     21 CAO         -3.2600     0.7860     0.0140 c          1 FVW       0.598100
     22 OAP         -2.7760    -0.0420    -0.7490 o          1 FVW      -0.557100
     23 NAQ         -4.6480     0.7610     0.3390 n          1 FVW      -0.265400
     24 CAY         -5.2580     1.9570     0.9730 c3         1 FVW       0.106300
     25 CAR         -5.5460    -0.2980    -0.0820 ca         1 FVW      -0.077000
     26 CAS         -5.1240    -1.6450    -0.0960 ca         1 FVW      -0.036000
     27 CAT         -5.9660    -2.6130    -0.6680 ca         1 FVW      -0.189000
     28 CAU         -7.1670    -2.2000    -1.2550 ca         1 FVW       0.542200
     29 FAX         -8.0030    -3.0960    -1.8210 f          1 FVW      -0.246200
     30 NAV         -7.5610    -0.9140    -1.3300 nb         1 FVW      -0.712000
     31 CAW         -6.7460     0.0120    -0.7740 ca         1 FVW       0.340900
     32 H2           5.1900     0.2020    -0.6330 hc         1 FVW       0.021700
     33 H3           4.6960    -1.0300    -1.9040 hc         1 FVW       0.021700
     34 H4           5.2000    -2.8150    -0.2690 hc         1 FVW       0.035200
     35 H5           5.5560    -1.6070     0.9580 hc         1 FVW       0.035200
     36 H6           2.8570    -1.9640    -0.4550 h1         1 FVW       0.057700
     37 H8           3.2150    -0.3010     1.9970 hn         1 FVW       0.270500
     38 H9           2.4880     1.5940     2.0650 hn         1 FVW       0.261500
     39 H10          1.5790     2.9470    -0.4310 h1         1 FVW       0.063700
     40 H12         -0.1320     2.7990     2.1080 hc         1 FVW       0.025700
     41 H13         -0.4370     3.8590     0.7370 hc         1 FVW       0.025700
     42 H14         -0.7080     1.8420    -0.7540 hc         1 FVW       0.066700
     43 H15         -0.4740     0.7930     0.6450 hc         1 FVW       0.066700
     44 H16         -2.5310     1.8450     1.7450 hc         1 FVW       0.047200
     45 H17         -2.7620     2.8510     0.3990 hc         1 FVW       0.047200
     46 H18         -5.1770     2.8180     0.2980 h1         1 FVW       0.036033
     47 H19         -6.3170     1.7760     1.1950 h1         1 FVW       0.036033
     48 H20         -4.7540     2.1840     1.9210 h1         1 FVW       0.036033
     49 H21         -4.1780    -1.9430     0.3520 ha         1 FVW       0.148000
     50 H22         -5.6920    -3.6630    -0.6690 ha         1 FVW       0.137000
     51 H23         -7.0680     1.0460    -0.8890 h4         1 FVW       0.025100
@<TRIPOS>BOND
     1     1     2 1   
     2     2     3 1   
     3     2     4 1   
     4     4     5 1   
     5     4    32 1   
     6     4    33 1   
     7     5     6 1   
     8     5    34 1   
     9     5    35 1   
    10     6     7 1   
    11     6    10 1   
    12     6    36 1   
    13     7     8 1   
    14     7     9 1   
    15    10    11 1   
    16    10    37 1   
    17    11    12 2   
    18    11    13 1   
    19    13    14 1   
    20    13    38 1   
    21    14    15 1   
    22    14    18 1   
    23    14    39 1   
    24    15    16 1   
    25    15    17 1   
    26    18    19 1   
    27    18    40 1   
    28    18    41 1   
    29    19    20 1   
    30    19    42 1   
    31    19    43 1   
    32    20    21 1   
    33    20    44 1   
    34    20    45 1   
    35    21    22 2   
    36    21    23 1   
    37    23    24 1   
    38    23    25 1   
    39    24    46 1   
    40    24    47 1   
    41    24    48 1   
    42    25    26 ar  
    43    25    31 ar  
    44    26    27 ar  
    45    26    49 1   
    46    27    28 ar  
    47    27    50 1   
    48    28    29 1   
    49    28    30 ar  
    50    30    31 ar  
    51    31    51 1   
@<TRIPOS>SUBSTRUCTURE
     1 FVW         1 TEMP              0 ****  ****    0 ROOT
