@<TRIPOS>MOLECULE
FVX
   43    43     1     0     0
SMALL
No Charge or Current Charge


@<TRIPOS>ATOM
      1 C1           5.4170     4.8700    -0.3890 c3         1 FVX       0.147900
      2 O2           4.6510     3.9440     0.4000 os         1 FVX      -0.455000
      3 C3           3.8690     3.0140    -0.3670 c3         1 FVX       0.159600
      4 C4           3.1170     2.1040     0.6230 c3         1 FVX      -0.081400
      5 C5           2.2310     1.0520    -0.0810 c3         1 FVX      -0.071400
      6 C6           1.4770     0.1320     0.9100 c3         1 FVX      -0.136700
      7 C7           0.5530    -0.8810     0.2270 ce         1 FVX       0.412900
      8 N8           0.9640    -2.0290    -0.2370 n2         1 FVX      -0.320700
      9 O9           2.3630    -2.2430    -0.2210 os         1 FVX      -0.317000
     10 C10          2.6780    -3.5390    -0.7720 c3         1 FVX       0.164600
     11 C11          4.2200    -3.7250    -0.7590 c3         1 FVX       0.145800
     12 N12          4.8130    -3.7200     0.6050 n8         1 FVX      -0.996200
     13 C13         -0.9260    -0.5830     0.1870 ca         1 FVX      -0.094900
     14 C14         -1.4060     0.7460     0.1440 ca         1 FVX      -0.094000
     15 C15         -2.7830     1.0160     0.0680 ca         1 FVX      -0.066500
     16 C16         -3.7210    -0.0360     0.0230 ca         1 FVX      -0.189300
     17 C17         -3.2480    -1.3640     0.0330 ca         1 FVX      -0.066500
     18 C18         -1.8710    -1.6330     0.1080 ca         1 FVX      -0.094000
     19 C19         -5.2230     0.2590    -0.0710 c3         1 FVX       0.357300
     20 F20         -5.9750    -0.7090     0.5010 f          1 FVX      -0.113667
     21 F21         -5.5590     1.4190     0.5390 f          1 FVX      -0.113667
     22 F22         -5.6230     0.3610    -1.3590 f          1 FVX      -0.113667
     23 H1           6.1270     4.3370    -1.0340 h1         1 FVX       0.028033
     24 H2           4.7590     5.4790    -1.0230 h1         1 FVX       0.028033
     25 H3           5.9860     5.5460     0.2620 h1         1 FVX       0.028033
     26 H4           3.1460     3.5450    -1.0000 h1         1 FVX       0.019700
     27 H5           4.5150     2.4030    -1.0110 h1         1 FVX       0.019700
     28 H6           3.8460     1.5920     1.2630 hc         1 FVX       0.052700
     29 H7           2.4920     2.7250     1.2760 hc         1 FVX       0.052700
     30 H8           1.5070     1.5660    -0.7270 hc         1 FVX       0.046700
     31 H9           2.8580     0.4380    -0.7390 hc         1 FVX       0.046700
     32 H10          2.2040    -0.3880     1.5450 hc         1 FVX       0.060700
     33 H11          0.9010     0.7570     1.6020 hc         1 FVX       0.060700
     34 H12          2.2070    -4.3400    -0.1860 h1         1 FVX       0.049200
     35 H13          2.3200    -3.6160    -1.8070 h1         1 FVX       0.049200
     36 H14          4.4730    -4.6770    -1.2450 h1         1 FVX       0.036200
     37 H15          4.6790    -2.9150    -1.3430 h1         1 FVX       0.036200
     38 H16          5.8370    -3.6830     0.5270 hn         1 FVX       0.398500
     39 H17          4.5720    -2.8290     1.0560 hn         1 FVX       0.398500
     40 H19         -0.7180     1.5870     0.1610 ha         1 FVX       0.130500
     41 H20         -3.1170     2.0510     0.0360 ha         1 FVX       0.131500
     42 H21         -3.9460    -2.1970    -0.0230 ha         1 FVX       0.131500
     43 H22         -1.5450    -2.6710     0.1150 ha         1 FVX       0.130500
@<TRIPOS>BOND
     1     1     2 1   
     2     1    23 1   
     3     1    24 1   
     4     1    25 1   
     5     2     3 1   
     6     3     4 1   
     7     3    26 1   
     8     3    27 1   
     9     4     5 1   
    10     4    28 1   
    11     4    29 1   
    12     5     6 1   
    13     5    30 1   
    14     5    31 1   
    15     6     7 1   
    16     6    32 1   
    17     6    33 1   
    18     7     8 2   
    19     7    13 1   
    20     8     9 1   
    21     9    10 1   
    22    10    11 1   
    23    10    34 1   
    24    10    35 1   
    25    11    12 1   
    26    11    36 1   
    27    11    37 1   
    28    12    38 1   
    29    12    39 1   
    30    13    14 ar  
    31    13    18 ar  
    32    14    15 ar  
    33    14    40 1   
    34    15    16 ar  
    35    15    41 1   
    36    16    17 ar  
    37    16    19 1   
    38    17    18 ar  
    39    17    42 1   
    40    18    43 1   
    41    19    20 1   
    42    19    21 1   
    43    19    22 1   
@<TRIPOS>SUBSTRUCTURE
     1 FVX         1 TEMP              0 ****  ****    0 ROOT
