@<TRIPOS>MOLECULE
FVX
   43    43     1     0     0
SMALL
abcg2


@<TRIPOS>ATOM
      1 C1           5.3280     4.7630    -0.5220 c3         1 FVX       0.147900
      2 O2           4.6370     3.8930     0.3360 os         1 FVX      -0.455000
      3 C3           3.8450     2.9620    -0.3600 c3         1 FVX       0.159600
      4 C4           3.1080     2.0830     0.6310 c3         1 FVX      -0.081400
      5 C5           2.2390     1.0510    -0.0750 c3         1 FVX      -0.071400
      6 C6           1.5090     0.1460     0.9230 c3         1 FVX      -0.136700
      7 C7           0.5910    -0.8350     0.2530 ce         1 FVX       0.412900
      8 N8           0.9750    -1.9180    -0.3030 n2         1 FVX      -0.320700
      9 O9           2.3100    -2.1300    -0.2090 os         1 FVX      -0.317000
     10 C10          2.6800    -3.3220    -0.8920 c3         1 FVX       0.164600
     11 C11          4.1590    -3.5370    -0.6710 c3         1 FVX       0.145800
     12 N12          4.4550    -3.8150     0.7250 n8         1 FVX      -0.996200
     13 C13         -0.8620    -0.5690     0.1810 ca         1 FVX      -0.094900
     14 C14         -1.3560     0.7260     0.3200 ca         1 FVX      -0.094000
     15 C15         -2.7170     0.9850     0.2460 ca         1 FVX      -0.066500
     16 C16         -3.6090    -0.0550     0.0370 ca         1 FVX      -0.189300
     17 C17         -3.1290    -1.3560    -0.1060 ca         1 FVX      -0.066500
     18 C18         -1.7740    -1.6070    -0.0360 ca         1 FVX      -0.094000
     19 C19         -5.0810     0.1860    -0.0600 c3         1 FVX       0.357300
     20 F20         -5.7740    -0.6360     0.7420 f          1 FVX      -0.113667
     21 F21         -5.4240     1.4340     0.2700 f          1 FVX      -0.113667
     22 F22         -5.5350    -0.0290    -1.3040 f          1 FVX      -0.113667
     23 H1           6.0090     4.2250    -1.1940 h1         1 FVX       0.028033
     24 H2           4.6470     5.3570    -1.1430 h1         1 FVX       0.028033
     25 H3           5.9180     5.4450     0.0890 h1         1 FVX       0.028033
     26 H4           3.1230     3.4790    -1.0090 h1         1 FVX       0.019700
     27 H5           4.4690     2.3400    -1.0190 h1         1 FVX       0.019700
     28 H6           3.8310     1.5750     1.2760 hc         1 FVX       0.052700
     29 H7           2.4850     2.7080     1.2780 hc         1 FVX       0.052700
     30 H8           1.5120     1.5620    -0.7140 hc         1 FVX       0.046700
     31 H9           2.8540     0.4360    -0.7370 hc         1 FVX       0.046700
     32 H10          2.2460    -0.3960     1.5200 hc         1 FVX       0.060700
     33 H11          0.9430     0.7590     1.6270 hc         1 FVX       0.060700
     34 H12          2.1110    -4.1720    -0.5020 h1         1 FVX       0.049200
     35 H13          2.4700    -3.2250    -1.9610 h1         1 FVX       0.049200
     36 H14          4.4440    -4.4050    -1.2680 h1         1 FVX       0.036200
     37 H15          4.7130    -2.6830    -1.0870 h1         1 FVX       0.036200
     38 H16          5.4370    -4.0390     0.8200 hn         1 FVX       0.398500
     39 H17          4.3090    -2.9810     1.2790 hn         1 FVX       0.398500
     40 H19         -0.6870     1.5610     0.4790 ha         1 FVX       0.130500
     41 H20         -3.0600     2.0040     0.3560 ha         1 FVX       0.131500
     42 H21         -3.8080    -2.1840    -0.2630 ha         1 FVX       0.131500
     43 H22         -1.4180    -2.6230    -0.1370 ha         1 FVX       0.130500
@<TRIPOS>BOND
     1     1     2 1   
     2     1    23 1   
     3     1    24 1   
     4     1    25 1   
     5     2     3 1   
     6     3     4 1   
     7     3    26 1   
     8     3    27 1   
     9     4     5 1   
    10     4    28 1   
    11     4    29 1   
    12     5     6 1   
    13     5    30 1   
    14     5    31 1   
    15     6     7 1   
    16     6    32 1   
    17     6    33 1   
    18     7     8 2   
    19     7    13 1   
    20     8     9 1   
    21     9    10 1   
    22    10    11 1   
    23    10    34 1   
    24    10    35 1   
    25    11    12 1   
    26    11    36 1   
    27    11    37 1   
    28    12    38 1   
    29    12    39 1   
    30    13    14 ar  
    31    13    18 ar  
    32    14    15 ar  
    33    14    40 1   
    34    15    16 ar  
    35    15    41 1   
    36    16    17 ar  
    37    16    19 1   
    38    17    18 ar  
    39    17    42 1   
    40    18    43 1   
    41    19    20 1   
    42    19    21 1   
    43    19    22 1   
@<TRIPOS>SUBSTRUCTURE
     1 FVX         1 TEMP              0 ****  ****    0 ROOT
