@<TRIPOS>MOLECULE
FVY
   36    38     1     0     0
SMALL
No Charge or Current Charge


@<TRIPOS>ATOM
      1 C10         -1.7100    -0.7490     0.7420 ca         1 FVY      -0.105000
      2 N12         -0.9480     1.6460     0.8380 na         1 FVY      -0.213600
      3 C13          0.2810     1.4610     1.6300 c3         1 FVY       0.139900
      4 C15          1.7530     1.2040    -0.4410 ca         1 FVY      -0.056000
      5 C17          3.4760    -0.5100    -0.5600 ca         1 FVY       0.189000
      6 C21          2.1080    -0.2990     1.4430 ca         1 FVY      -0.067000
      7 N01         -0.9410     4.0130     0.3650 nv         1 FVY      -0.997200
      8 C02         -1.4710     2.7880     0.2440 cc         1 FVY       0.619700
      9 N03         -2.5630     2.5540    -0.4790 nd         1 FVY      -0.631100
     10 C04         -2.7320     1.1750    -0.3360 ca         1 FVY       0.098400
     11 C05         -3.7340     0.3720    -0.8970 ca         1 FVY      -0.063000
     12 C06         -3.7260    -1.0200    -0.6350 ca         1 FVY      -0.088300
     13 C07         -4.8160    -1.8950    -1.2470 c3         1 FVY      -0.042800
     14 C08         -2.7070    -1.5830     0.1880 ca         1 FVY      -0.067300
     15 C09         -2.6710    -3.0790     0.4840 c3         1 FVY      -0.044800
     16 C11         -1.7630     0.6210     0.4550 ca         1 FVY      -0.079200
     17 C14          1.4060     0.7750     0.8580 ca         1 FVY      -0.124300
     18 C16          2.7860     0.5620    -1.1470 ca         1 FVY      -0.144000
     19 C19          3.1400    -0.9430     0.7370 ca         1 FVY       0.063000
     20 Cl20         3.9970    -2.2870     1.4910 cl         1 FVY      -0.167000
     21 H1          -0.9230    -1.1580     1.3710 ha         1 FVY       0.114000
     22 H2           0.6360     2.4380     1.9800 h1         1 FVY       0.061200
     23 H3           0.0290     0.8720     2.5210 h1         1 FVY       0.061200
     24 H4           1.2250     2.0350    -0.9050 ha         1 FVY       0.137000
     25 H5           1.8540    -0.6410     2.4440 ha         1 FVY       0.129000
     26 H6          -0.3420     4.1860     1.1620 hn         1 FVY       0.466500
     27 H7          -1.5270     4.7830     0.0640 hn         1 FVY       0.466500
     28 H8          -4.5000     0.8210    -1.5240 ha         1 FVY       0.126000
     29 H9          -4.3850    -2.6600    -1.9040 hc         1 FVY       0.039367
     30 H10         -5.3970    -2.4040    -0.4700 hc         1 FVY       0.039367
     31 H11         -5.5200    -1.3080    -1.8490 hc         1 FVY       0.039367
     32 H12         -3.5850    -3.4030     0.9960 hc         1 FVY       0.040033
     33 H13         -2.5750    -3.6630    -0.4390 hc         1 FVY       0.040033
     34 H14         -1.8240    -3.3470     1.1280 hc         1 FVY       0.040033
     35 H15          3.0510     0.8920    -2.1480 ha         1 FVY       0.140000
     36 F18          4.4670    -1.1210    -1.2500 f          1 FVY      -0.159000
@<TRIPOS>BOND
     1     1    14 ar  
     2     1    16 ar  
     3     1    21 1   
     4     2     3 1   
     5     2     8 1   
     6     2    16 1   
     7     3    17 1   
     8     3    22 1   
     9     3    23 1   
    10     4    17 ar  
    11     4    18 ar  
    12     4    24 1   
    13     5    18 ar  
    14     5    19 ar  
    15     5    36 1   
    16     6    17 ar  
    17     6    19 ar  
    18     6    25 1   
    19     7     8 1   
    20     7    26 1   
    21     7    27 1   
    22     8     9 2   
    23     9    10 1   
    24    10    11 ar  
    25    10    16 ar  
    26    11    12 ar  
    27    11    28 1   
    28    12    13 1   
    29    12    14 ar  
    30    13    29 1   
    31    13    30 1   
    32    13    31 1   
    33    14    15 1   
    34    15    32 1   
    35    15    33 1   
    36    15    34 1   
    37    18    35 1   
    38    19    20 1   
@<TRIPOS>SUBSTRUCTURE
     1 FVY         1 TEMP              0 ****  ****    0 ROOT
