@<TRIPOS>MOLECULE
FVY
   36    38     1     0     0
SMALL
abcg2


@<TRIPOS>ATOM
      1 C10         -1.7100    -0.7800     0.7410 ca         1 FVY      -0.105000
      2 N12         -0.9230     1.6230     0.8230 na         1 FVY      -0.213600
      3 C13          0.2850     1.4940     1.6010 c3         1 FVY       0.139900
      4 C15          1.8120     1.2900    -0.3950 ca         1 FVY      -0.056000
      5 C17          3.4340    -0.4530    -0.5410 ca         1 FVY       0.189000
      6 C21          2.0020    -0.3220     1.3730 ca         1 FVY      -0.067000
      7 N01         -0.8320     3.9530     0.3190 nv         1 FVY      -0.997200
      8 C02         -1.4430     2.7410     0.2280 cc         1 FVY       0.619700
      9 N03         -2.5190     2.5020    -0.4760 nd         1 FVY      -0.631100
     10 C04         -2.7270     1.1450    -0.3570 ca         1 FVY       0.098400
     11 C05         -3.7220     0.3330    -0.8890 ca         1 FVY      -0.063000
     12 C06         -3.7140    -1.0310    -0.6120 ca         1 FVY      -0.088300
     13 C07         -4.7810    -1.9140    -1.1950 c3         1 FVY      -0.042800
     14 C08         -2.7070    -1.5890     0.2030 ca         1 FVY      -0.067300
     15 C09         -2.7010    -3.0630     0.4930 c3         1 FVY      -0.044800
     16 C11         -1.7390     0.5730     0.4510 ca         1 FVY      -0.079200
     17 C14          1.3890     0.8030     0.8400 ca         1 FVY      -0.124300
     18 C16          2.8340     0.6640    -1.0890 ca         1 FVY      -0.144000
     19 C19          3.0270    -0.9520     0.6830 ca         1 FVY       0.063000
     20 CL20         3.7970    -2.3510     1.3280 cl         1 FVY      -0.167000
     21 H1          -0.9350    -1.2150     1.3610 ha         1 FVY       0.114000
     22 H2           0.6160     2.4840     1.9150 h1         1 FVY       0.061200
     23 H3           0.0570     0.9490     2.5180 h1         1 FVY       0.061200
     24 H4           1.3490     2.1690    -0.8230 ha         1 FVY       0.137000
     25 H5           1.6870    -0.7180     2.3300 ha         1 FVY       0.129000
     26 H6          -0.3760     4.1770     1.1900 hn         1 FVY       0.466500
     27 H7          -1.4040     4.7160    -0.0070 hn         1 FVY       0.466500
     28 H8          -4.4990     0.7580    -1.5130 ha         1 FVY       0.126000
     29 H9          -4.3580    -2.6790    -1.8510 hc         1 FVY       0.039367
     30 H10         -5.3430    -2.4430    -0.4220 hc         1 FVY       0.039367
     31 H11         -5.4950    -1.3360    -1.7800 hc         1 FVY       0.039367
     32 H12         -3.6110    -3.3800     1.0080 hc         1 FVY       0.040033
     33 H13         -2.6370    -3.6570    -0.4210 hc         1 FVY       0.040033
     34 H14         -1.8550    -3.3380     1.1230 hc         1 FVY       0.040033
     35 H15          3.1680     1.0380    -2.0470 ha         1 FVY       0.140000
     36 F18          4.4230    -1.0640    -1.1970 f          1 FVY      -0.159000
@<TRIPOS>BOND
     1     1    14 ar  
     2     1    16 ar  
     3     1    21 1   
     4     2     3 1   
     5     2     8 1   
     6     2    16 1   
     7     3    17 1   
     8     3    22 1   
     9     3    23 1   
    10     4    17 ar  
    11     4    18 ar  
    12     4    24 1   
    13     5    18 ar  
    14     5    19 ar  
    15     5    36 1   
    16     6    17 ar  
    17     6    19 ar  
    18     6    25 1   
    19     7     8 1   
    20     7    26 1   
    21     7    27 1   
    22     8     9 2   
    23     9    10 1   
    24    10    11 ar  
    25    10    16 ar  
    26    11    12 ar  
    27    11    28 1   
    28    12    13 1   
    29    12    14 ar  
    30    13    29 1   
    31    13    30 1   
    32    13    31 1   
    33    14    15 1   
    34    15    32 1   
    35    15    33 1   
    36    15    34 1   
    37    18    35 1   
    38    19    20 1   
@<TRIPOS>SUBSTRUCTURE
     1 FVY         1 TEMP              0 ****  ****    0 ROOT
