@<TRIPOS>MOLECULE
FVZ
   49    49     1     0     0
SMALL
abcg2


@<TRIPOS>ATOM
      1 OBC          6.9200    -2.8310     2.2410 o          1 FVZ      -0.776500
      2 CBB          6.9810    -1.5850     2.2300 c          1 FVZ       0.710000
      3 OBD          7.6890    -0.8750     2.9760 o          1 FVZ      -0.776500
      4 CBA          6.1020    -0.8290     1.2180 c3         1 FVZ      -0.197400
      5 CAZ          5.3630    -1.6970     0.2110 c3         1 FVZ      -0.048400
      6 CAV          4.5590    -0.9020    -0.8180 c3         1 FVZ      -0.038300
      7 CAW          3.9990    -1.8560    -1.9020 c          1 FVZ       0.712000
      8 OAY          2.7860    -2.1300    -1.8620 o          1 FVZ      -0.761000
      9 OAX          4.8410    -2.2960    -2.7120 o          1 FVZ      -0.761000
     10 NAU          3.5330    -0.1360    -0.1460 ns         1 FVZ      -0.449900
     11 CAA          2.7830     0.7520    -0.8560 c          1 FVZ       0.648100
     12 OAT          3.1310     1.1780    -1.9530 o          1 FVZ      -0.665100
     13 N            1.6150     1.1330    -0.2630 ns         1 FVZ      -0.477900
     14 CA           0.9600     2.3450    -0.6990 c3         1 FVZ      -0.029300
     15 C            1.7930     3.6260    -0.4380 c          1 FVZ       0.708000
     16 OXT          1.3910     4.6520    -1.0250 o          1 FVZ      -0.740500
     17 O            2.7570     3.5390     0.3440 o          1 FVZ      -0.740500
     18 CB          -0.4010     2.4670    -0.0160 c3         1 FVZ      -0.066400
     19 CAM         -1.3630     1.3290    -0.3360 c3         1 FVZ      -0.071400
     20 CAL         -2.7090     1.5510     0.3320 c3         1 FVZ      -0.151400
     21 CAJ         -3.7260     0.4640     0.0590 c          1 FVZ       0.598100
     22 OAK         -3.4660    -0.5570    -0.5510 o          1 FVZ      -0.552100
     23 NAI         -4.9540     0.7440     0.5710 ns         1 FVZ      -0.162000
     24 CAC         -6.1190    -0.0280     0.5660 ca         1 FVZ      -0.001000
     25 CAB         -6.2760    -1.2170    -0.1490 ca         1 FVZ      -0.138000
     26 CAD         -7.4780    -1.9100    -0.0940 ca         1 FVZ      -0.124500
     27 CAF         -8.5170    -1.4180     0.6660 ca         1 FVZ       0.108000
     28 FAH         -9.6780    -2.0960     0.7160 f          1 FVZ      -0.200000
     29 CAG         -8.3920    -0.2420     1.3800 ca         1 FVZ      -0.124500
     30 CAE         -7.1920     0.4450     1.3260 ca         1 FVZ      -0.138000
     31 H2           5.3900    -0.2170     1.7820 hc         1 FVZ       0.022200
     32 H3           6.7320    -0.1070     0.6850 hc         1 FVZ       0.022200
     33 H4           6.0770    -2.3160    -0.3340 hc         1 FVZ       0.035200
     34 H5           4.6960    -2.3920     0.7320 hc         1 FVZ       0.035200
     35 H6           5.2410    -0.2020    -1.3090 h1         1 FVZ       0.058700
     36 H8           3.0630    -0.6200     0.6050 hn         1 FVZ       0.269500
     37 H9           1.5430     0.9510     0.7280 hn         1 FVZ       0.262500
     38 H10          0.7850     2.2720    -1.7760 h1         1 FVZ       0.063700
     39 H12         -0.2600     2.5390     1.0690 hc         1 FVZ       0.026200
     40 H13         -0.8450     3.4150    -0.3290 hc         1 FVZ       0.026200
     41 H14         -1.4910     1.2600    -1.4200 hc         1 FVZ       0.067200
     42 H15         -0.9400     0.3760    -0.0120 hc         1 FVZ       0.067200
     43 H16         -2.5800     1.6280     1.4170 hc         1 FVZ       0.046700
     44 H17         -3.1330     2.5120     0.0190 hc         1 FVZ       0.046700
     45 H18         -5.0290     1.6180     1.0710 hn         1 FVZ       0.146000
     46 H19         -5.4760    -1.6130    -0.7510 ha         1 FVZ       0.136500
     47 H20         -7.5930    -2.8310    -0.6490 ha         1 FVZ       0.119500
     48 H21         -9.2130     0.1360     1.9750 ha         1 FVZ       0.119500
     49 H22         -7.0890     1.3650     1.8890 ha         1 FVZ       0.136500
@<TRIPOS>BOND
     1     1     2 1   
     2     2     3 1   
     3     2     4 1   
     4     4     5 1   
     5     4    31 1   
     6     4    32 1   
     7     5     6 1   
     8     5    33 1   
     9     5    34 1   
    10     6     7 1   
    11     6    10 1   
    12     6    35 1   
    13     7     8 1   
    14     7     9 1   
    15    10    11 1   
    16    10    36 1   
    17    11    12 2   
    18    11    13 1   
    19    13    14 1   
    20    13    37 1   
    21    14    15 1   
    22    14    18 1   
    23    14    38 1   
    24    15    16 1   
    25    15    17 1   
    26    18    19 1   
    27    18    39 1   
    28    18    40 1   
    29    19    20 1   
    30    19    41 1   
    31    19    42 1   
    32    20    21 1   
    33    20    43 1   
    34    20    44 1   
    35    21    22 2   
    36    21    23 1   
    37    23    24 1   
    38    23    45 1   
    39    24    25 ar  
    40    24    30 ar  
    41    25    26 ar  
    42    25    46 1   
    43    26    27 ar  
    44    26    47 1   
    45    27    28 1   
    46    27    29 ar  
    47    29    30 ar  
    48    29    48 1   
    49    30    49 1   
@<TRIPOS>SUBSTRUCTURE
     1 FVZ         1 TEMP              0 ****  ****    0 ROOT
