@<TRIPOS>MOLECULE
FVZ
   49    49     1     0     0
SMALL
No Charge or Current Charge


@<TRIPOS>ATOM
      1 OBC          7.0390     0.0700    -1.8820 o          1 FVZ      -0.776500
      2 CBB          6.1210    -0.5900    -2.3430 c          1 FVZ       0.710000
      3 OBD          6.2430    -1.3220    -3.3140 o          1 FVZ      -0.776500
      4 CBA          4.7570    -0.5430    -1.6320 c3         1 FVZ      -0.197400
      5 CAZ          4.6880    -1.6360    -0.5340 c3         1 FVZ      -0.048400
      6 CAV          3.3110    -1.7610     0.1740 c3         1 FVZ      -0.038300
      7 CAW          3.2760    -2.9940     1.1310 c          1 FVZ       0.712000
      8 OAY          3.9160    -2.9500     2.1730 o          1 FVZ      -0.761000
      9 OAX          2.5460    -3.9320     0.8400 o          1 FVZ      -0.761000
     10 NAU          2.9430    -0.5270     0.9110 ns         1 FVZ      -0.449900
     11 CAA          2.1150     0.4630     0.4440 c          1 FVZ       0.648100
     12 OAT          1.5540     0.4310    -0.6400 o          1 FVZ      -0.665100
     13 N            1.9850     1.4940     1.3410 ns         1 FVZ      -0.477900
     14 CA           1.1460     2.7030     1.1450 c3         1 FVZ      -0.029300
     15 C            1.8890     3.9740     1.6680 c          1 FVZ       0.708000
     16 OXT          2.0800     4.8950     0.8850 o          1 FVZ      -0.740500
     17 O            2.3190     3.9760     2.8150 o          1 FVZ      -0.740500
     18 CB          -0.2540     2.5600     1.7980 c3         1 FVZ      -0.066400
     19 CAM         -1.1250     1.4270     1.2060 c3         1 FVZ      -0.071400
     20 CAL         -2.5450     1.3750     1.8200 c3         1 FVZ      -0.151400
     21 CAJ         -3.3860     0.2420     1.2110 c          1 FVZ       0.598100
     22 OAK         -3.1890    -0.9300     1.5100 o          1 FVZ      -0.552100
     23 NAI         -4.3850     0.6750     0.3490 ns         1 FVZ      -0.162000
     24 CAC         -5.3610    -0.0220    -0.4150 ca         1 FVZ      -0.001000
     25 CAB         -5.4150    -1.4310    -0.5140 ca         1 FVZ      -0.138000
     26 CAD         -6.4110    -2.0500    -1.2940 ca         1 FVZ      -0.124500
     27 CAF         -7.3530    -1.2680    -1.9780 ca         1 FVZ       0.108000
     28 FAH         -8.3070    -1.8650    -2.7250 f          1 FVZ      -0.200000
     29 CAG         -7.3070     0.1300    -1.8900 ca         1 FVZ      -0.124500
     30 CAE         -6.3120     0.7500    -1.1120 ca         1 FVZ      -0.138000
     31 H2           4.6310     0.4170    -1.1160 hc         1 FVZ       0.022200
     32 H3           3.9500    -0.7750    -2.3380 hc         1 FVZ       0.022200
     33 H4           4.9270    -2.6050    -0.9900 hc         1 FVZ       0.035200
     34 H5           5.4650    -1.4450     0.2170 hc         1 FVZ       0.035200
     35 H6           2.5490    -1.9420    -0.5960 h1         1 FVZ       0.058700
     36 H8           3.3320    -0.3990     1.8360 hn         1 FVZ       0.269500
     37 H9           2.5120     1.4230     2.2020 hn         1 FVZ       0.262500
     38 H10          1.0040     2.8510     0.0670 h1         1 FVZ       0.063700
     39 H12         -0.1370     2.3990     2.8760 hc         1 FVZ       0.026200
     40 H13         -0.7890     3.5110     1.6780 hc         1 FVZ       0.026200
     41 H14         -1.2050     1.5630     0.1190 hc         1 FVZ       0.067200
     42 H15         -0.6300     0.4620     1.3710 hc         1 FVZ       0.067200
     43 H16         -2.4500     1.2010     2.8980 hc         1 FVZ       0.046700
     44 H17         -3.0340     2.3410     1.6430 hc         1 FVZ       0.046700
     45 H18         -4.4220     1.6800     0.2360 hn         1 FVZ       0.146000
     46 H19         -4.6960    -2.0640    -0.0040 ha         1 FVZ       0.136500
     47 H20         -6.4500    -3.1340    -1.3690 ha         1 FVZ       0.119500
     48 H21         -8.0390     0.7320    -2.4240 ha         1 FVZ       0.119500
     49 H22         -6.2840     1.8360    -1.0500 ha         1 FVZ       0.136500
@<TRIPOS>BOND
     1     1     2 1   
     2     2     3 1   
     3     2     4 1   
     4     4     5 1   
     5     4    31 1   
     6     4    32 1   
     7     5     6 1   
     8     5    33 1   
     9     5    34 1   
    10     6     7 1   
    11     6    10 1   
    12     6    35 1   
    13     7     8 1   
    14     7     9 1   
    15    10    11 1   
    16    10    36 1   
    17    11    12 2   
    18    11    13 1   
    19    13    14 1   
    20    13    37 1   
    21    14    15 1   
    22    14    18 1   
    23    14    38 1   
    24    15    16 1   
    25    15    17 1   
    26    18    19 1   
    27    18    39 1   
    28    18    40 1   
    29    19    20 1   
    30    19    41 1   
    31    19    42 1   
    32    20    21 1   
    33    20    43 1   
    34    20    44 1   
    35    21    22 2   
    36    21    23 1   
    37    23    24 1   
    38    23    45 1   
    39    24    25 ar  
    40    24    30 ar  
    41    25    26 ar  
    42    25    46 1   
    43    26    27 ar  
    44    26    47 1   
    45    27    28 1   
    46    27    29 ar  
    47    29    30 ar  
    48    29    48 1   
    49    30    49 1   
@<TRIPOS>SUBSTRUCTURE
     1 FVZ         1 TEMP              0 ****  ****    0 ROOT
