@<TRIPOS>MOLECULE
FW1
   65    67     1     0     0
SMALL
No Charge or Current Charge


@<TRIPOS>ATOM
      1 CAA         -1.6640     2.2550     0.1320 c3         1 FW1      -0.026700
      2 CAB         -2.0700     0.8910    -0.5340 c5         1 FW1      -0.012500
      3 CAC         -2.4630    -0.1920     0.4610 c2         1 FW1      -0.089400
      4 CAD         -1.6500    -1.0030     1.1750 c2         1 FW1      -0.173200
      5 CAE         -0.1060    -1.1250     1.0870 c5         1 FW1       0.052400
      6 CAF          0.7990    -0.0820     0.3730 c2         1 FW1      -0.054400
      7 CAG          0.8020     1.4500     0.6290 c3         1 FW1       0.200500
      8 CAH         -0.4910     2.1480     1.1600 c3         1 FW1       0.153300
      9 CAI          0.1090    -2.4220     0.1660 c5         1 FW1       0.165300
     10 CAJ          1.5920    -2.2530    -0.2320 c5         1 FW1      -0.084200
     11 CAK          1.7900    -0.7470    -0.2740 c2         1 FW1      -0.124400
     12 CAL         -3.2590     0.9670    -1.5570 c5         1 FW1      -0.083400
     13 CAM         -3.9750    -0.3990    -1.3650 c5         1 FW1      -0.069400
     14 CAN         -3.9080    -0.5850     0.1770 c5         1 FW1      -0.038500
     15 CAO          0.4530    -1.3850     2.5180 c3         1 FW1      -0.089100
     16 CAP         -4.9590     0.2150     0.9910 c3         1 FW1       0.164600
     17 CAQ         -2.8240     3.0720     0.7730 c3         1 FW1      -0.076100
     18 OAR         -0.9320     1.5620     2.3850 oh         1 FW1      -0.652000
     19 OAS         -6.2570    -0.3540     0.7380 os         1 FW1      -0.456000
     20 CAT          3.0790    -0.1870    -0.8890 c3         1 FW1      -0.012500
     21 CAU          2.9330    -0.0700    -2.4240 c3         1 FW1      -0.082100
     22 CAV          4.3290    -1.0120    -0.4840 c3         1 FW1       0.167600
     23 OAW          1.1970     2.1560    -0.5610 oh         1 FW1      -0.628000
     24 OAX          5.5060    -0.3100    -0.9270 os         1 FW1      -0.451100
     25 OAY         -0.7110    -2.5200    -1.0290 oh         1 FW1      -0.637000
     26 CAZ         -7.3350     0.2980     1.4280 c3         1 FW1       0.147900
     27 CBA          6.7260    -0.8740    -0.6670 c          1 FW1       0.595100
     28 CBB          7.8640    -0.0150    -1.1980 c3         1 FW1      -0.156100
     29 OBC          6.8910    -1.9360    -0.0820 o          1 FW1      -0.494000
     30 HAA         -1.2970     2.8890    -0.6840 hc         1 FW1       0.042700
     31 HAB         -1.1950     0.5500    -1.0950 hc         1 FW1       0.047700
     32 HAD         -2.1440    -1.8060     1.7250 ha         1 FW1       0.170000
     33 HAG          1.5710     1.6210     1.3940 h1         1 FW1       0.016700
     34 HAH         -0.1950     3.1810     1.3860 h1         1 FW1       0.013700
     35 HAI         -0.0270    -3.3390     0.7560 h1         1 FW1       0.034700
     36 HAJ          2.2600    -2.7180     0.5030 hc         1 FW1       0.055200
     37 HAJA         1.8100    -2.7210    -1.1990 hc         1 FW1       0.055200
     38 HAL         -3.9580     1.7830    -1.3610 hc         1 FW1       0.042700
     39 HALA        -2.9060     1.1050    -2.5850 hc         1 FW1       0.042700
     40 HAM         -4.9990    -0.3980    -1.7540 hc         1 FW1       0.048200
     41 HAMA        -3.4320    -1.2010    -1.8790 hc         1 FW1       0.048200
     42 HAN         -4.0760    -1.6370     0.4330 hc         1 FW1       0.067700
     43 HAO          1.5320    -1.5800     2.5060 hc         1 FW1       0.040033
     44 HAOA         0.2940    -0.5340     3.1870 hc         1 FW1       0.040033
     45 HAOB        -0.0290    -2.2550     2.9790 hc         1 FW1       0.040033
     46 HAP         -4.7120     0.1490     2.0590 h1         1 FW1       0.024200
     47 HAPA        -4.9440     1.2700     0.6950 h1         1 FW1       0.024200
     48 HAQ         -2.4360     3.9970     1.2160 hc         1 FW1       0.038033
     49 HAQA        -3.5760     3.3730     0.0370 hc         1 FW1       0.038033
     50 HAQB        -3.3180     2.5090     1.5720 hc         1 FW1       0.038033
     51 HOAR        -1.1660     0.6400     2.1440 ho         1 FW1       0.439000
     52 HAT          3.2670     0.8190    -0.5000 hc         1 FW1       0.059700
     53 HAU          2.0460     0.5190    -2.6840 hc         1 FW1       0.040033
     54 HAUA         3.8070     0.4250    -2.8660 hc         1 FW1       0.040033
     55 HAUB         2.8300    -1.0600    -2.8830 hc         1 FW1       0.040033
     56 HAV          4.3430    -1.1310     0.6080 h1         1 FW1       0.052200
     57 HAVA         4.2790    -2.0110    -0.9390 h1         1 FW1       0.052200
     58 HOAW         1.4040     3.0760    -0.2960 ho         1 FW1       0.432000
     59 HOAY        -0.4300    -3.3320    -1.5000 ho         1 FW1       0.435000
     60 HAZ         -7.1880     0.2490     2.5150 h1         1 FW1       0.026367
     61 HAZA        -7.4040     1.3530     1.1330 h1         1 FW1       0.026367
     62 HAZB        -8.2900    -0.1870     1.1890 h1         1 FW1       0.026367
     63 HBB          7.7030     0.1630    -2.2670 hc         1 FW1       0.068700
     64 HBBA         7.7710     0.9930    -0.7790 hc         1 FW1       0.068700
     65 HBBB         8.8500    -0.4510    -1.0000 hc         1 FW1       0.068700
@<TRIPOS>BOND
     1     1     2 1   
     2     1     8 1   
     3     1    17 1   
     4     1    30 1   
     5     2     3 1   
     6     2    12 1   
     7     2    31 1   
     8     3     4 2   
     9     3    14 1   
    10     4     5 1   
    11     4    32 1   
    12     5     6 1   
    13     5     9 1   
    14     5    15 1   
    15     6     7 1   
    16     6    11 2   
    17     7     8 1   
    18     7    23 1   
    19     7    33 1   
    20     8    18 1   
    21     8    34 1   
    22     9    10 1   
    23     9    25 1   
    24     9    35 1   
    25    10    11 1   
    26    10    36 1   
    27    10    37 1   
    28    11    20 1   
    29    12    13 1   
    30    12    38 1   
    31    12    39 1   
    32    13    14 1   
    33    13    40 1   
    34    13    41 1   
    35    14    16 1   
    36    14    42 1   
    37    15    43 1   
    38    15    44 1   
    39    15    45 1   
    40    16    19 1   
    41    16    46 1   
    42    16    47 1   
    43    17    48 1   
    44    17    49 1   
    45    17    50 1   
    46    18    51 1   
    47    19    26 1   
    48    20    21 1   
    49    20    22 1   
    50    20    52 1   
    51    21    53 1   
    52    21    54 1   
    53    21    55 1   
    54    22    24 1   
    55    22    56 1   
    56    22    57 1   
    57    23    58 1   
    58    24    27 1   
    59    25    59 1   
    60    26    60 1   
    61    26    61 1   
    62    26    62 1   
    63    27    28 1   
    64    27    29 2   
    65    28    63 1   
    66    28    64 1   
    67    28    65 1   
@<TRIPOS>SUBSTRUCTURE
     1 FW1         1 TEMP              0 ****  ****    0 ROOT
