@<TRIPOS>MOLECULE
FW1
   65    67     1     0     0
SMALL
bcc


@<TRIPOS>ATOM
      1 CAA         -1.1200     2.6030    -0.0440 c3         1 FW1      -0.026700
      2 CAB         -2.4180     1.8400    -0.3560 c5         1 FW1      -0.012500
      3 CAC         -2.7130     0.3700    -0.1060 c2         1 FW1      -0.089400
      4 CAD         -1.9820    -0.6880     0.2390 c2         1 FW1      -0.123200
      5 CAE         -0.5400    -0.8330     0.6380 c5         1 FW1       0.052400
      6 CAF          0.5560    -0.1750    -0.2180 c2         1 FW1      -0.054400
      7 CAG          0.3660     0.8330    -1.3190 c3         1 FW1       0.177300
      8 CAH          0.0150     2.2990    -1.0200 c3         1 FW1       0.130100
      9 CAI         -0.0600    -2.3000     0.5770 c5         1 FW1       0.142100
     10 CAJ          1.4600    -2.1430     0.6910 c5         1 FW1      -0.084200
     11 CAK          1.6920    -0.8730    -0.0870 c2         1 FW1      -0.124400
     12 CAL         -3.6280     2.5090     0.3110 c5         1 FW1      -0.083400
     13 CAM         -4.8180     1.6090    -0.0210 c5         1 FW1      -0.069400
     14 CAN         -4.2100     0.2340    -0.3830 c5         1 FW1      -0.038500
     15 CAO         -0.4550    -0.4660     2.1440 c3         1 FW1      -0.089100
     16 CAP         -4.9030    -0.9140     0.3240 c3         1 FW1       0.141400
     17 CAQ         -0.6500     2.6490     1.4110 c3         1 FW1      -0.076100
     18 OAR          1.1610     2.9890    -0.5680 oh         1 FW1      -0.589800
     19 OAS         -6.2680    -0.8960    -0.0180 os         1 FW1      -0.409600
     20 CAT          3.0360    -0.5780    -0.6890 c3         1 FW1      -0.012500
     21 CAU          3.3240    -1.4940    -1.8800 c3         1 FW1      -0.082100
     22 CAV          4.0910    -0.7000     0.4040 c3         1 FW1       0.144400
     23 OAW         -0.5700     0.2570    -2.2090 oh         1 FW1      -0.565800
     24 OAX          5.3350    -0.2400    -0.1320 os         1 FW1      -0.427900
     25 OAY         -0.4310    -2.8570    -0.6590 oh         1 FW1      -0.574800
     26 CAZ         -6.9880    -1.9360     0.5890 c3         1 FW1       0.124700
     27 CBA          6.4040    -0.2810     0.6510 c          1 FW1       0.644100
     28 CBB          7.6350     0.2440    -0.0260 c3         1 FW1      -0.156100
     29 OBC          6.3800    -0.6930     1.7860 o          1 FW1      -0.543000
     30 HAA         -1.4050     3.6350    -0.2850 hc         1 FW1       0.042700
     31 HAB         -2.5680     1.9650    -1.4390 hc         1 FW1       0.047700
     32 HAD         -2.5290    -1.6210     0.3430 ha         1 FW1       0.120000
     33 HAG          1.3370     0.8990    -1.8350 h1         1 FW1       0.016700
     34 HAH         -0.2970     2.7120    -1.9960 h1         1 FW1       0.013700
     35 HAI         -0.4810    -2.8870     1.4050 h1         1 FW1       0.034700
     36 HAJ          1.7800    -2.0740     1.7360 hc         1 FW1       0.055200
     37 HAJA         1.9980    -2.9960     0.2670 hc         1 FW1       0.055200
     38 HAL         -3.4760     2.5520     1.3930 hc         1 FW1       0.042700
     39 HALA        -3.7630     3.5360    -0.0320 hc         1 FW1       0.042700
     40 HAM         -5.5100     1.5340     0.8190 hc         1 FW1       0.048200
     41 HAMA        -5.3890     2.0100    -0.8600 hc         1 FW1       0.048200
     42 HAN         -4.3270     0.0750    -1.4630 hc         1 FW1       0.067700
     43 HAO         -0.8940    -1.2670     2.7410 hc         1 FW1       0.040033
     44 HAOA         0.5740    -0.3270     2.4800 hc         1 FW1       0.040033
     45 HAOB        -1.0120     0.4320     2.3780 hc         1 FW1       0.040033
     46 HAP         -4.4650    -1.8800     0.0360 h1         1 FW1       0.024200
     47 HAPA        -4.7720    -0.8150     1.4130 h1         1 FW1       0.024200
     48 HAQ          0.1120     1.9070     1.6320 hc         1 FW1       0.038033
     49 HAQA        -0.2190     3.6240     1.6370 hc         1 FW1       0.038033
     50 HAQB        -1.4750     2.5020     2.1080 hc         1 FW1       0.038033
     51 HOAR         1.8260     2.9590    -1.2620 ho         1 FW1       0.400000
     52 HAT          3.0530     0.4610    -1.0300 hc         1 FW1       0.059700
     53 HAU          2.5480    -1.3810    -2.6380 hc         1 FW1       0.040033
     54 HAUA         4.2820    -1.2600    -2.3440 hc         1 FW1       0.040033
     55 HAUB         3.3450    -2.5430    -1.5800 hc         1 FW1       0.040033
     56 HAV          3.8130    -0.0930     1.2700 h1         1 FW1       0.052200
     57 HAVA         4.1940    -1.7370     0.7360 h1         1 FW1       0.052200
     58 HOAW        -0.6590     0.8530    -2.9610 ho         1 FW1       0.393000
     59 HOAY        -0.0980    -3.7590    -0.6890 ho         1 FW1       0.396000
     60 HAZ         -6.6280    -2.9250     0.2770 h1         1 FW1       0.026367
     61 HAZA        -6.9340    -1.8920     1.6830 h1         1 FW1       0.026367
     62 HAZB        -8.0330    -1.8440     0.2930 h1         1 FW1       0.026367
     63 HBB          7.4590     0.5510    -1.0530 hc         1 FW1       0.068700
     64 HBBA         8.0170     1.0960     0.5370 hc         1 FW1       0.068700
     65 HBBB         8.4100    -0.5220    -0.0120 hc         1 FW1       0.068700
@<TRIPOS>BOND
     1     1     2 1   
     2     1     8 1   
     3     1    17 1   
     4     1    30 1   
     5     2     3 1   
     6     2    12 1   
     7     2    31 1   
     8     3     4 2   
     9     3    14 1   
    10     4     5 1   
    11     4    32 1   
    12     5     6 1   
    13     5     9 1   
    14     5    15 1   
    15     6     7 1   
    16     6    11 2   
    17     7     8 1   
    18     7    23 1   
    19     7    33 1   
    20     8    18 1   
    21     8    34 1   
    22     9    10 1   
    23     9    25 1   
    24     9    35 1   
    25    10    11 1   
    26    10    36 1   
    27    10    37 1   
    28    11    20 1   
    29    12    13 1   
    30    12    38 1   
    31    12    39 1   
    32    13    14 1   
    33    13    40 1   
    34    13    41 1   
    35    14    16 1   
    36    14    42 1   
    37    15    43 1   
    38    15    44 1   
    39    15    45 1   
    40    16    19 1   
    41    16    46 1   
    42    16    47 1   
    43    17    48 1   
    44    17    49 1   
    45    17    50 1   
    46    18    51 1   
    47    19    26 1   
    48    20    21 1   
    49    20    22 1   
    50    20    52 1   
    51    21    53 1   
    52    21    54 1   
    53    21    55 1   
    54    22    24 1   
    55    22    56 1   
    56    22    57 1   
    57    23    58 1   
    58    24    27 1   
    59    25    59 1   
    60    26    60 1   
    61    26    61 1   
    62    26    62 1   
    63    27    28 1   
    64    27    29 2   
    65    28    63 1   
    66    28    64 1   
    67    28    65 1   
@<TRIPOS>SUBSTRUCTURE
     1 FW1         1 TEMP              0 ****  ****    0 ROOT
