@<TRIPOS>MOLECULE
FW2
   21    20     1     0     0
SMALL
abcg2


@<TRIPOS>ATOM
      1 C1           3.0420    -0.3770    -0.2260 c          1 FW2       0.648000
      2 C2           1.7160     0.2410     0.3030 c          1 FW2       0.431100
      3 C3           0.4300    -0.4100    -0.1410 c3         1 FW2      -0.222400
      4 C4          -0.8100     0.4310     0.1130 c3         1 FW2       0.142300
      5 C5          -2.0980    -0.3700    -0.1430 c3         1 FW2       0.129300
      6 C6          -3.3350     0.4820     0.0960 c3         1 FW2       0.123600
      7 O1           4.0670     0.2840    -0.0090 o          1 FW2      -0.696500
      8 O2           2.9270    -1.4720    -0.8010 o          1 FW2      -0.696500
      9 O4          -0.7830     1.6190    -0.6500 oh         1 FW2      -0.713000
     10 O5          -2.1240    -1.5500     0.6300 oh         1 FW2      -0.639000
     11 O6          -4.4800    -0.2850    -0.1980 oh         1 FW2      -0.714000
     12 H7           0.5020    -0.6760    -1.2000 hc         1 FW2       0.075200
     13 H8           0.3590    -1.3690     0.3810 hc         1 FW2       0.075200
     14 H1          -0.8190     0.7580     1.1590 h1         1 FW2       0.073700
     15 H           -2.0990    -0.7060    -1.1880 h1         1 FW2       0.076700
     16 H4          -3.3340     0.8220     1.1440 h1         1 FW2       0.025200
     17 H3          -3.2810     1.3790    -0.5280 h1         1 FW2       0.025200
     18 H6          -0.7320     1.3790    -1.5820 ho         1 FW2       0.492000
     19 H5          -2.1680    -1.3040     1.5610 ho         1 FW2       0.433000
     20 H2          -5.2490     0.2810    -0.0860 ho         1 FW2       0.488000
     21 O3           1.7360     1.1750     1.0710 o          1 FW2      -0.557100
@<TRIPOS>BOND
     1     1     2 1   
     2     1     7 1   
     3     1     8 1   
     4     2     3 1   
     5     2    21 2   
     6     3     4 1   
     7     3    12 1   
     8     3    13 1   
     9     4     5 1   
    10     4     9 1   
    11     4    14 1   
    12     5     6 1   
    13     5    10 1   
    14     5    15 1   
    15     6    11 1   
    16     6    16 1   
    17     6    17 1   
    18     9    18 1   
    19    10    19 1   
    20    11    20 1   
@<TRIPOS>SUBSTRUCTURE
     1 FW2         1 TEMP              0 ****  ****    0 ROOT
