@<TRIPOS>MOLECULE
FW2
   21    20     1     0     0
SMALL
No Charge or Current Charge


@<TRIPOS>ATOM
      1 C1           2.7090     0.4180    -0.6580 c          1 FW2       0.648000
      2 C2           1.8010    -0.1760     0.5390 c          1 FW2       0.431100
      3 C3           0.4740    -0.8430     0.1330 c3         1 FW2      -0.222400
      4 C4          -0.6740     0.1940     0.0470 c3         1 FW2       0.142300
      5 C5          -2.1000    -0.4510     0.0710 c3         1 FW2       0.129300
      6 C6          -3.2470     0.5910    -0.0500 c3         1 FW2       0.123600
      7 O1           3.9330     0.3860    -0.5510 o          1 FW2      -0.696500
      8 O2           2.1250     0.8970    -1.6280 o          1 FW2      -0.696500
      9 O4          -0.5080     0.9570    -1.1610 oh         1 FW2      -0.713000
     10 O5          -2.3140    -1.1810     1.2910 oh         1 FW2      -0.639000
     11 O6          -4.5220    -0.0520     0.1440 oh         1 FW2      -0.714000
     12 H7           0.5820    -1.3050    -0.8550 hc         1 FW2       0.075200
     13 H8           0.2290    -1.6030     0.8830 hc         1 FW2       0.075200
     14 H1          -0.6030     0.8570     0.9220 h1         1 FW2       0.073700
     15 H           -2.1780    -1.1330    -0.7880 h1         1 FW2       0.076700
     16 H4          -3.1010     1.3810     0.7000 h1         1 FW2       0.025200
     17 H3          -3.2070     1.0610    -1.0420 h1         1 FW2       0.025200
     18 H6           0.4650     0.9660    -1.3880 ho         1 FW2       0.492000
     19 H5          -3.2950    -1.1830     1.3890 ho         1 FW2       0.433000
     20 H2          -5.2170     0.6280    -0.0210 ho         1 FW2       0.488000
     21 O3           2.1160    -0.0780     1.7280 o          1 FW2      -0.557100
@<TRIPOS>BOND
     1     1     2 1   
     2     1     7 1   
     3     1     8 1   
     4     2     3 1   
     5     2    21 2   
     6     3     4 1   
     7     3    12 1   
     8     3    13 1   
     9     4     5 1   
    10     4     9 1   
    11     4    14 1   
    12     5     6 1   
    13     5    10 1   
    14     5    15 1   
    15     6    11 1   
    16     6    16 1   
    17     6    17 1   
    18     9    18 1   
    19    10    19 1   
    20    11    20 1   
@<TRIPOS>SUBSTRUCTURE
     1 FW2         1 TEMP              0 ****  ****    0 ROOT
