@<TRIPOS>MOLECULE
FW3
   63    67     1     0     0
SMALL
abcg2


@<TRIPOS>ATOM
      1 C27          6.4620    35.1980    29.1310 ca         1 FW3      -0.102000
      2 C26          5.7540    34.9630    30.3050 ca         1 FW3      -0.113500
      3 C22          2.2570    37.5810    30.7660 ca         1 FW3      -0.099000
      4 C23          3.5590    38.0280    30.5190 cp         1 FW3      -0.019000
      5 C24          4.5820    37.0680    30.0420 cp         1 FW3      -0.043000
      6 C20          1.5220    39.7890    31.4120 ca         1 FW3      -0.083300
      7 C21          1.2560    38.4400    31.2000 ca         1 FW3      -0.106000
      8 C17         -0.9410    42.6290    31.1680 c3         1 FW3       0.159800
      9 C11         -5.2670    43.4250    27.0960 ca         1 FW3      -0.031000
     10 C7          -2.1290    42.9740    23.7880 cc         1 FW3       0.403100
     11 C3          -5.0210    44.8020    26.9780 ca         1 FW3      -0.296500
     12 C14         -2.3700    45.7120    29.2650 c6         1 FW3      -0.104900
     13 O1          -7.0480    45.3330    28.5260 o          1 FW3      -0.543000
     14 C4          -4.1210    45.3120    26.0560 ca         1 FW3       0.033000
     15 C5          -3.4430    44.4010    25.2550 ca         1 FW3      -0.210000
     16 S6          -2.2490    44.6960    24.0290 ss         1 FW3       0.039800
     17 N8          -2.8930    42.2310    24.5210 nd         1 FW3      -0.530100
     18 C9          -3.6600    43.0090    25.3700 ca         1 FW3       0.129400
     19 C10         -4.5900    42.5260    26.2970 ca         1 FW3      -0.074000
     20 N12         -4.8430    45.9490    29.4760 n3         1 FW3      -0.762500
     21 C13         -3.5520    46.6600    29.4360 c6         1 FW3       0.208800
     22 C15         -2.3660    44.5920    30.3110 c6         1 FW3      -0.054700
     23 C16         -1.1960    43.6380    30.0560 c3         1 FW3      -0.077400
     24 N18          0.1710    41.7450    30.8200 n7         1 FW3      -0.863400
     25 C25          4.8190    35.8890    30.7550 ca         1 FW3      -0.089500
     26 C28          6.2260    36.3650    28.4090 ca         1 FW3      -0.113500
     27 C29          5.2960    37.2920    28.8600 ca         1 FW3      -0.089500
     28 C30          3.8070    39.3870    30.7510 ca         1 FW3       0.130000
     29 CL31         5.4200    40.0520    30.5480 cl         1 FW3      -0.209000
     30 C32          2.8160    40.2530    31.1860 ca         1 FW3      -0.080000
     31 C33         -3.7230    43.8770    30.3060 c6         1 FW3      -0.104900
     32 C34         -4.8890    44.8510    30.4590 c6         1 FW3       0.208800
     33 O35         -5.7520    47.2310    27.5610 o          1 FW3      -0.543000
     34 H1           7.1900    34.4780    28.7800 ha         1 FW3       0.113000
     35 H2           5.9300    34.0590    30.8750 ha         1 FW3       0.114000
     36 H3           2.0290    36.5370    30.5900 ha         1 FW3       0.122000
     37 H4           0.7650    41.2740    32.7540 h1         1 FW3       0.039700
     38 H5          -0.4560    40.1690    32.1230 h1         1 FW3       0.039700
     39 H6           0.2560    38.0580    31.3640 ha         1 FW3       0.115000
     40 H7          -0.6730    43.1570    32.0890 h1         1 FW3       0.030200
     41 H8          -1.8550    42.0570    31.3860 h1         1 FW3       0.030200
     42 H10         -1.4370    42.5850    23.0530 h5         1 FW3       0.063800
     43 H11         -2.3910    45.2710    28.2650 hc         1 FW3       0.051450
     44 H12         -1.4480    46.2930    29.3390 hc         1 FW3       0.051450
     45 H13         -3.9480    46.3760    25.9780 ha         1 FW3       0.146000
     46 H14         -4.7650    41.4620    26.3810 ha         1 FW3       0.138000
     47 H15         -3.4660    47.1940    30.3870 h1         1 FW3       0.069950
     48 H16         -3.5870    47.4030    28.6440 h1         1 FW3       0.069950
     49 H17         -2.2280    45.0530    31.2980 hc         1 FW3       0.051700
     50 H18         -1.3770    43.1010    29.1170 hc         1 FW3       0.050200
     51 H19         -0.2850    44.2250    29.9080 hc         1 FW3       0.050200
     52 H20         -0.0500    41.2610    29.9540 hn         1 FW3       0.410000
     53 H22          4.2740    35.7040    31.6720 ha         1 FW3       0.117000
     54 H23          6.7650    36.5510    27.4880 ha         1 FW3       0.114000
     55 H24          5.1130    38.1920    28.2880 ha         1 FW3       0.117000
     56 H25          3.0550    41.2950    31.3550 ha         1 FW3       0.139000
     57 H26         -3.8270    43.3170    29.3730 hc         1 FW3       0.051450
     58 H27         -3.7810    43.1540    31.1220 hc         1 FW3       0.051450
     59 H28         -4.8560    45.3210    31.4450 h1         1 FW3       0.069950
     60 H29         -5.8460    44.3440    30.3670 h1         1 FW3       0.069950
     61 C19          0.4430    40.7430    31.8530 c3         1 FW3       0.205100
     62 S2          -5.7800    45.9080    28.1420 sy         1 FW3       1.198600
     63 H9          -5.9850    43.0720    27.8230 ha         1 FW3       0.136000
@<TRIPOS>BOND
     1     1     2 ar  
     2     1    26 ar  
     3     1    34 1   
     4     2    25 ar  
     5     2    35 1   
     6     3     4 ar  
     7     3     7 ar  
     8     3    36 1   
     9     4     5 1   
    10     4    28 ar  
    11     5    25 ar  
    12     5    27 ar  
    13     6     7 ar  
    14     6    30 ar  
    15     6    61 1   
    16     7    39 1   
    17     8    23 1   
    18     8    24 1   
    19     8    40 1   
    20     8    41 1   
    21     9    11 ar  
    22     9    19 ar  
    23     9    63 1   
    24    10    16 1   
    25    10    17 2   
    26    10    42 1   
    27    11    14 ar  
    28    11    62 1   
    29    12    21 1   
    30    12    22 1   
    31    12    43 1   
    32    12    44 1   
    33    13    62 2   
    34    14    15 ar  
    35    14    45 1   
    36    15    16 1   
    37    15    18 ar  
    38    17    18 1   
    39    18    19 ar  
    40    19    46 1   
    41    20    21 1   
    42    20    32 1   
    43    20    62 1   
    44    21    47 1   
    45    21    48 1   
    46    22    23 1   
    47    22    31 1   
    48    22    49 1   
    49    23    50 1   
    50    23    51 1   
    51    24    52 1   
    52    24    61 1   
    53    25    53 1   
    54    26    27 ar  
    55    26    54 1   
    56    27    55 1   
    57    28    29 1   
    58    28    30 ar  
    59    30    56 1   
    60    31    32 1   
    61    31    57 1   
    62    31    58 1   
    63    32    59 1   
    64    32    60 1   
    65    33    62 2   
    66    37    61 1   
    67    38    61 1   
@<TRIPOS>SUBSTRUCTURE
     1 FW3         1 TEMP              0 ****  ****    0 ROOT
