@<TRIPOS>MOLECULE
FW3
   63    67     1     0     0
SMALL
No Charge or Current Charge


@<TRIPOS>ATOM
      1 C27          6.7290    34.1510    31.0660 ca         1 FW3      -0.102000
      2 C26          6.0520    34.3140    32.2860 ca         1 FW3      -0.113500
      3 C22          2.6930    37.2160    32.0700 ca         1 FW3      -0.099000
      4 C23          4.0120    37.4790    31.6250 cp         1 FW3      -0.019000
      5 C24          4.9610    36.3410    31.4290 cp         1 FW3      -0.043000
      6 C20          2.1390    39.5890    32.0210 ca         1 FW3      -0.083300
      7 C21          1.7670    38.2540    32.2620 ca         1 FW3      -0.106000
      8 C17         -0.3690    42.2780    31.0150 c3         1 FW3       0.159800
      9 C11         -4.9840    44.4640    25.1230 ca         1 FW3      -0.031000
     10 C7          -6.1730    48.2890    22.8350 cc         1 FW3       0.403100
     11 C3          -5.5480    45.1050    26.2530 ca         1 FW3      -0.296500
     12 C14         -2.0830    44.3370    28.0820 c6         1 FW3      -0.104900
     13 O1          -5.0730    42.9170    27.7270 o          1 FW3      -0.543000
     14 C4          -6.1020    46.3950    26.1260 ca         1 FW3       0.033000
     15 C5          -6.0820    47.0120    24.8660 ca         1 FW3      -0.210000
     16 S6          -6.7140    48.6080    24.4980 ss         1 FW3       0.039800
     17 N8          -5.5780    47.1150    22.5680 nd         1 FW3      -0.530100
     18 C9          -5.5370    46.3960    23.7570 ca         1 FW3       0.129400
     19 C10         -4.9810    45.1130    23.8720 ca         1 FW3      -0.074000
     20 N12         -4.3620    45.1860    28.7190 n3         1 FW3      -0.762500
     21 C13         -3.0880    45.5140    28.0250 c6         1 FW3       0.208800
     22 C15         -1.8050    43.9040    29.5480 c6         1 FW3      -0.054700
     23 C16         -0.8190    42.6970    29.5990 c3         1 FW3      -0.077400
     24 N18          0.6290    41.1970    30.9340 n7         1 FW3      -0.863400
     25 C25          5.1730    35.3970    32.4630 ca         1 FW3      -0.089500
     26 C28          6.5230    35.0690    30.0230 ca         1 FW3      -0.113500
     27 C29          5.6450    36.1520    30.2030 ca         1 FW3      -0.089500
     28 C30          4.3780    38.8340    31.3920 ca         1 FW3       0.130000
     29 Cl31         6.0120    39.2860    30.9000 cl         1 FW3      -0.209000
     30 C32          3.4480    39.8700    31.5880 ca         1 FW3      -0.080000
     31 C33         -3.1490    43.6170    30.2780 c6         1 FW3      -0.104900
     32 C34         -4.1410    44.8020    30.1350 c6         1 FW3       0.208800
     33 O35         -6.8220    44.6280    28.5090 o          1 FW3      -0.543000
     34 H1           7.4080    33.3120    30.9280 ha         1 FW3       0.113000
     35 H2           6.2060    33.6010    33.0930 ha         1 FW3       0.114000
     36 H3           2.3850    36.1890    32.2570 ha         1 FW3       0.122000
     37 H4           1.6400    41.5390    32.7690 h1         1 FW3       0.039700
     38 H5           0.3180    40.3660    32.8630 h1         1 FW3       0.039700
     39 H6           0.7590    38.0200    32.5980 ha         1 FW3       0.115000
     40 H7           0.0580    43.1520    31.5270 h1         1 FW3       0.030200
     41 H8          -1.2410    41.9430    31.5920 h1         1 FW3       0.030200
     42 H10         -6.3430    49.0570    22.0910 h5         1 FW3       0.063800
     43 H11         -2.4640    43.4880    27.5000 hc         1 FW3       0.051450
     44 H12         -1.1440    44.6430    27.6000 hc         1 FW3       0.051450
     45 H13         -6.5320    46.9090    26.9860 ha         1 FW3       0.146000
     46 H14         -4.5490    44.6250    23.0020 ha         1 FW3       0.138000
     47 H15         -2.6210    46.3800    28.5160 h1         1 FW3       0.069950
     48 H16         -3.2470    45.8150    26.9800 h1         1 FW3       0.069950
     49 H17         -1.3030    44.7380    30.0620 hc         1 FW3       0.051700
     50 H18         -1.2730    41.8300    29.1030 hc         1 FW3       0.050200
     51 H19          0.0780    42.9450    29.0190 hc         1 FW3       0.050200
     52 H20          0.1970    40.3970    30.4580 hn         1 FW3       0.410000
     53 H22          4.6560    35.5130    33.4130 ha         1 FW3       0.117000
     54 H23          7.0410    34.9410    29.0750 ha         1 FW3       0.114000
     55 H24          5.4840    36.8470    29.3820 ha         1 FW3       0.117000
     56 H25          3.7470    40.8990    31.4050 ha         1 FW3       0.139000
     57 H26         -3.6020    42.6970    29.8880 hc         1 FW3       0.051450
     58 H27         -2.9710    43.4400    31.3460 hc         1 FW3       0.051450
     59 H28         -3.7250    45.6600    30.6840 h1         1 FW3       0.069950
     60 H29         -5.0910    44.5520    30.6320 h1         1 FW3       0.069950
     61 C19          1.1430    40.7210    32.2290 c3         1 FW3       0.205100
     62 S2          -5.5450    44.2990    27.8640 sy         1 FW3       1.198600
     63 H9          -4.5470    43.4710    25.2080 ha         1 FW3       0.136000
@<TRIPOS>BOND
     1     1     2 ar  
     2     1    26 ar  
     3     1    34 1   
     4     2    25 ar  
     5     2    35 1   
     6     3     4 ar  
     7     3     7 ar  
     8     3    36 1   
     9     4     5 1   
    10     4    28 ar  
    11     5    25 ar  
    12     5    27 ar  
    13     6     7 ar  
    14     6    30 ar  
    15     6    61 1   
    16     7    39 1   
    17     8    23 1   
    18     8    24 1   
    19     8    40 1   
    20     8    41 1   
    21     9    11 ar  
    22     9    19 ar  
    23     9    63 1   
    24    10    16 1   
    25    10    17 2   
    26    10    42 1   
    27    11    14 ar  
    28    11    62 1   
    29    12    21 1   
    30    12    22 1   
    31    12    43 1   
    32    12    44 1   
    33    13    62 2   
    34    14    15 ar  
    35    14    45 1   
    36    15    16 1   
    37    15    18 ar  
    38    17    18 1   
    39    18    19 ar  
    40    19    46 1   
    41    20    21 1   
    42    20    32 1   
    43    20    62 1   
    44    21    47 1   
    45    21    48 1   
    46    22    23 1   
    47    22    31 1   
    48    22    49 1   
    49    23    50 1   
    50    23    51 1   
    51    24    52 1   
    52    24    61 1   
    53    25    53 1   
    54    26    27 ar  
    55    26    54 1   
    56    27    55 1   
    57    28    29 1   
    58    28    30 ar  
    59    30    56 1   
    60    31    32 1   
    61    31    57 1   
    62    31    58 1   
    63    32    59 1   
    64    32    60 1   
    65    33    62 2   
    66    37    61 1   
    67    38    61 1   
@<TRIPOS>SUBSTRUCTURE
     1 FW3         1 TEMP              0 ****  ****    0 ROOT
