@<TRIPOS>MOLECULE
FW4
   48    51     1     0     0
SMALL
abcg2


@<TRIPOS>ATOM
      1 C10          5.0730     2.3970     0.8570 c3         1 FW4      -0.045800
      2 C13          3.7650    -0.3760    -1.3920 ca         1 FW4      -0.054000
      3 C21         -2.3250    -3.3610    -1.0000 c6         1 FW4       0.153300
      4 C22         -0.9050    -2.8730    -1.2190 c6         1 FW4       0.195800
      5 C24         -1.2390     3.1940     0.2750 ca         1 FW4      -0.150000
      6 C02         -2.7970     1.4120    -0.1490 ca         1 FW4       0.060000
      7 C03         -1.9820     0.5280     0.5350 ca         1 FW4      -0.051000
      8 C04         -0.7840     0.9660     1.0930 ca         1 FW4      -0.128300
      9 N06          1.0600    -0.6250     0.8580 na         1 FW4      -0.188600
     10 C07          2.2430    -0.0490     0.4470 ca         1 FW4      -0.078200
     11 C08          3.0300     0.9610     0.9800 ca         1 FW4      -0.113000
     12 C09          4.1980     1.3060     0.3100 ca         1 FW4      -0.062300
     13 C11          4.5680     0.6340    -0.8790 ca         1 FW4      -0.093300
     14 C12          5.8330     1.0170    -1.5930 c3         1 FW4      -0.042800
     15 C14          2.5930    -0.7210    -0.7280 ca         1 FW4       0.085400
     16 N15          1.6530    -1.6830    -1.0220 nc         1 FW4      -0.606100
     17 C16          0.7630    -1.5890    -0.0740 cd         1 FW4       0.609700
     18 N17         -0.3930    -2.3280     0.0320 nh         1 FW4      -0.718600
     19 C18         -0.4360    -3.3090     1.1180 c6         1 FW4       0.195800
     20 C19         -1.8600    -3.7950     1.3020 c6         1 FW4       0.153300
     21 N20         -2.3420    -4.3540     0.0560 n7         1 FW4      -0.863400
     22 C23         -0.4260     2.3030     0.9600 ca         1 FW4      -0.060000
     23 C25         -2.4180     2.7390    -0.2770 ca         1 FW4       0.192000
     24 F26         -3.2110     3.5800    -0.9420 f          1 FW4      -0.159000
     25 H1           6.0830     2.0380     1.0640 hc         1 FW4       0.040367
     26 H2           5.1730     3.2270     0.1530 hc         1 FW4       0.040367
     27 H3           4.6700     2.8000     1.7850 hc         1 FW4       0.040367
     28 H4           4.0500    -0.8910    -2.3020 ha         1 FW4       0.127000
     29 H5          -2.9690    -2.4930    -0.7830 h1         1 FW4       0.038200
     30 H6          -2.6910    -3.8100    -1.9250 h1         1 FW4       0.038200
     31 H7          -0.2840    -3.7010    -1.5840 h1         1 FW4       0.054950
     32 H8          -0.8980    -2.0890    -1.9760 h1         1 FW4       0.054950
     33 H9          -0.9630     4.2350     0.1720 ha         1 FW4       0.138000
     34 H10         -2.2780    -0.5080     0.6260 ha         1 FW4       0.142000
     35 H11          0.7040     0.4780     2.5670 h1         1 FW4       0.066200
     36 H12         -0.4560    -0.7900     2.2840 h1         1 FW4       0.066200
     37 H13          2.7610     1.4730     1.8970 ha         1 FW4       0.111000
     38 H14          5.8010     2.0510    -1.9460 hc         1 FW4       0.039367
     39 H15          6.7090     0.9360    -0.9460 hc         1 FW4       0.039367
     40 H16          6.0040     0.3800    -2.4600 hc         1 FW4       0.039367
     41 H17          0.2210    -4.1600     0.8910 h1         1 FW4       0.054950
     42 H18         -0.0780    -2.8620     2.0440 h1         1 FW4       0.054950
     43 H19         -1.8750    -4.5650     2.0760 h1         1 FW4       0.038200
     44 H20         -2.4740    -2.9550     1.6630 h1         1 FW4       0.038200
     45 H21         -3.2800    -4.7140     0.1780 hn         1 FW4       0.417000
     46 H23          0.4960     2.6650     1.3960 ha         1 FW4       0.122000
     47 C05          0.1250    -0.0160     1.7870 c3         1 FW4       0.138900
     48 CL1         -4.2800     0.8780    -0.8470 cl         1 FW4      -0.173000
@<TRIPOS>BOND
     1     1    12 1   
     2     1    25 1   
     3     1    26 1   
     4     1    27 1   
     5     2    13 ar  
     6     2    15 ar  
     7     2    28 1   
     8     3     4 1   
     9     3    21 1   
    10     3    29 1   
    11     3    30 1   
    12     4    18 1   
    13     4    31 1   
    14     4    32 1   
    15     5    22 ar  
    16     5    23 ar  
    17     5    33 1   
    18     6     7 ar  
    19     6    23 ar  
    20     6    48 1   
    21     7     8 ar  
    22     7    34 1   
    23     8    22 ar  
    24     8    47 1   
    25     9    10 1   
    26     9    17 1   
    27     9    47 1   
    28    10    11 ar  
    29    10    15 ar  
    30    11    12 ar  
    31    11    37 1   
    32    12    13 ar  
    33    13    14 1   
    34    14    38 1   
    35    14    39 1   
    36    14    40 1   
    37    15    16 1   
    38    16    17 2   
    39    17    18 1   
    40    18    19 1   
    41    19    20 1   
    42    19    41 1   
    43    19    42 1   
    44    20    21 1   
    45    20    43 1   
    46    20    44 1   
    47    21    45 1   
    48    22    46 1   
    49    23    24 1   
    50    35    47 1   
    51    36    47 1   
@<TRIPOS>SUBSTRUCTURE
     1 FW4         1 TEMP              0 ****  ****    0 ROOT
