@<TRIPOS>MOLECULE
FW5
   17    16     1     0     0
SMALL
No Charge or Current Charge


@<TRIPOS>ATOM
      1 C            3.2840     0.3090    -0.0280 c3         1 FW5       0.143900
      2 O            1.9750    -0.1900    -0.3510 os         1 FW5      -0.434000
      3 C1           0.8920     0.5160     0.2890 c3         1 FW5       0.123600
      4 C2          -0.4590    -0.1220    -0.1370 c3         1 FW5       0.166300
      5 C3          -1.6730     0.7070     0.3580 c3         1 FW5       0.129600
      6 O1          -0.5880    -1.4630     0.3810 oh         1 FW5      -0.684000
      7 O2          -2.8980     0.0270     0.0350 oh         1 FW5      -0.641000
      8 H1           3.3870     1.3590    -0.3300 h1         1 FW5       0.029033
      9 H2           3.4730     0.2370     1.0510 h1         1 FW5       0.029033
     10 H3           4.0530    -0.2740    -0.5500 h1         1 FW5       0.029033
     11 H4           0.9910     0.4730     1.3820 h1         1 FW5       0.020700
     12 H5           0.9000     1.5720    -0.0120 h1         1 FW5       0.020700
     13 H6          -0.4930    -0.1330    -1.2360 h1         1 FW5       0.097700
     14 H7          -1.5960     0.8570     1.4430 h1         1 FW5       0.017700
     15 H8          -1.6500     1.6960    -0.1190 h1         1 FW5       0.017700
     16 H9          -1.5620    -1.6210     0.3930 ho         1 FW5       0.493000
     17 H10         -3.6370     0.6180     0.3050 ho         1 FW5       0.442000
@<TRIPOS>BOND
     1     1     2 1   
     2     1     8 1   
     3     1     9 1   
     4     1    10 1   
     5     2     3 1   
     6     3     4 1   
     7     3    11 1   
     8     3    12 1   
     9     4     5 1   
    10     4     6 1   
    11     4    13 1   
    12     5     7 1   
    13     5    14 1   
    14     5    15 1   
    15     6    16 1   
    16     7    17 1   
@<TRIPOS>SUBSTRUCTURE
     1 FW5         1 TEMP              0 ****  ****    0 ROOT
