@<TRIPOS>MOLECULE
FW5
   17    16     1     0     0
SMALL
bcc


@<TRIPOS>ATOM
      1 C            3.1260     0.2840     0.0730 c3         1 FW5       0.120700
      2 O            1.8800    -0.2000    -0.3560 os         1 FW5      -0.387600
      3 C1           0.8090     0.4780     0.2430 c3         1 FW5       0.100400
      4 C2          -0.5020    -0.1210    -0.2400 c3         1 FW5       0.143100
      5 C3          -1.6670     0.7050     0.2800 c3         1 FW5       0.106400
      6 O1          -0.6190    -1.4850     0.0940 oh         1 FW5      -0.561800
      7 O2          -2.8640     0.1960    -0.2580 oh         1 FW5      -0.578800
      8 H1           3.2690     1.3410    -0.1840 h1         1 FW5       0.029033
      9 H2           3.2540     0.1840     1.1570 h1         1 FW5       0.029033
     10 H3           3.9040    -0.2980    -0.4210 h1         1 FW5       0.029033
     11 H4           0.8690     0.4090     1.3420 h1         1 FW5       0.020700
     12 H5           0.8360     1.5490    -0.0030 h1         1 FW5       0.020700
     13 H6          -0.5150    -0.0820    -1.3340 h1         1 FW5       0.097700
     14 H7          -1.6720     0.6730     1.3800 h1         1 FW5       0.017700
     15 H8          -1.5080     1.7530    -0.0030 h1         1 FW5       0.017700
     16 H9          -0.6140    -1.5680     1.0540 ho         1 FW5       0.394000
     17 H10         -3.5860     0.7510     0.0490 ho         1 FW5       0.403000
@<TRIPOS>BOND
     1     1     2 1   
     2     1     8 1   
     3     1     9 1   
     4     1    10 1   
     5     2     3 1   
     6     3     4 1   
     7     3    11 1   
     8     3    12 1   
     9     4     5 1   
    10     4     6 1   
    11     4    13 1   
    12     5     7 1   
    13     5    14 1   
    14     5    15 1   
    15     6    16 1   
    16     7    17 1   
@<TRIPOS>SUBSTRUCTURE
     1 FW5         1 TEMP              0 ****  ****    0 ROOT
