@<TRIPOS>MOLECULE
FW6
   22    22     1     0     0
SMALL
bcc


@<TRIPOS>ATOM
      1 C06        -24.0240    -4.6170   -18.1120 ca         1 FW6       0.316100
      2 C07        -24.2730    -5.4270   -16.9930 ca         1 FW6      -0.213000
      3 C08        -25.1260    -6.5140   -17.1020 ca         1 FW6      -0.112000
      4 C09        -25.7550    -6.8260   -18.3010 ca         1 FW6      -0.256000
      5 C10        -25.5240    -6.0340   -19.4230 ca         1 FW6      -0.075300
      6 C11        -26.1580    -6.3600   -20.7490 c3         1 FW6      -0.015100
      7 C12        -25.2180    -7.1420   -21.6640 c3         1 FW6      -0.080100
      8 C13        -24.6670    -4.9450   -19.3130 ca         1 FW6      -0.246000
      9 O01        -24.2770    -2.2400   -16.1750 o          1 FW6      -0.897167
     10 O03        -22.0200    -3.4140   -15.8030 o          1 FW6      -0.897167
     11 O04        -22.1680    -1.4060   -17.4010 o          1 FW6      -0.897167
     12 O05        -23.2070    -3.5700   -18.1130 os         1 FW6      -0.417500
     13 P02        -22.8870    -2.5450   -16.7020 p5         1 FW6       1.254900
     14 H1         -23.7790    -5.2150   -16.0550 ha         1 FW6       0.173000
     15 H2         -25.3050    -7.1310   -16.2290 ha         1 FW6       0.083000
     16 H3         -26.4230    -7.6780   -18.3620 ha         1 FW6       0.076000
     17 H4         -26.4610    -5.4380   -21.2500 hc         1 FW6       0.019200
     18 H5         -27.0700    -6.9390   -20.5880 hc         1 FW6       0.019200
     19 H6         -25.7000    -7.3710   -22.6160 hc         1 FW6       0.017367
     20 H7         -24.3130    -6.5730   -21.8780 hc         1 FW6       0.017367
     21 H8         -24.9190    -8.0850   -21.2060 hc         1 FW6       0.017367
     22 H9         -24.4860    -4.3190   -20.1820 ha         1 FW6       0.112000
@<TRIPOS>BOND
     1     1     2 ar  
     2     1     8 ar  
     3     1    12 1   
     4     2     3 ar  
     5     2    14 1   
     6     3     4 ar  
     7     3    15 1   
     8     4     5 ar  
     9     4    16 1   
    10     5     6 1   
    11     5     8 ar  
    12     6     7 1   
    13     6    17 1   
    14     6    18 1   
    15     7    19 1   
    16     7    20 1   
    17     7    21 1   
    18     8    22 1   
    19     9    13 1   
    20    10    13 1   
    21    11    13 1   
    22    12    13 1   
@<TRIPOS>SUBSTRUCTURE
     1 FW6         1 TEMP              0 ****  ****    0 ROOT
