@<TRIPOS>MOLECULE
FW6
   22    22     1     0     0
SMALL
No Charge or Current Charge


@<TRIPOS>ATOM
      1 C06        -24.2420    -4.4780   -18.0920 ca         1 FW6       0.316100
      2 C07        -24.4540    -5.2990   -16.9630 ca         1 FW6      -0.195000
      3 C08        -25.2080    -6.4780   -17.0790 ca         1 FW6      -0.094000
      4 C09        -25.7540    -6.8430   -18.3190 ca         1 FW6      -0.238000
      5 C10        -25.5530    -6.0350   -19.4520 ca         1 FW6      -0.075300
      6 C11        -26.1430    -6.4330   -20.8000 c3         1 FW6      -0.015100
      7 C12        -25.1380    -7.2070   -21.6730 c3         1 FW6      -0.080100
      8 C13        -24.7950    -4.8560   -19.3290 ca         1 FW6      -0.228000
      9 O01        -23.7710    -2.3280   -15.7220 o          1 FW6      -0.897167
     10 O03        -21.7460    -3.5720   -16.2450 o          1 FW6      -0.897167
     11 O04        -22.1160    -1.3820   -17.2230 o          1 FW6      -0.897167
     12 O05        -23.5170    -3.3140   -18.0530 os         1 FW6      -0.417500
     13 P02        -22.7780    -2.6440   -16.7870 p5         1 FW6       1.254900
     14 H1         -24.0400    -5.0340   -15.9950 ha         1 FW6       0.155000
     15 H2         -25.3680    -7.1090   -16.2070 ha         1 FW6       0.065000
     16 H3         -26.3340    -7.7590   -18.3990 ha         1 FW6       0.058000
     17 H4         -26.4730    -5.5400   -21.3450 hc         1 FW6       0.019200
     18 H5         -27.0380    -7.0520   -20.6570 hc         1 FW6       0.019200
     19 H6         -25.5940    -7.4780   -22.6330 hc         1 FW6       0.017367
     20 H7         -24.2500    -6.5950   -21.8750 hc         1 FW6       0.017367
     21 H8         -24.8180    -8.1270   -21.1710 hc         1 FW6       0.017367
     22 H9         -24.6310    -4.2250   -20.1980 ha         1 FW6       0.094000
@<TRIPOS>BOND
     1     1     2 ar  
     2     1     8 ar  
     3     1    12 1   
     4     2     3 ar  
     5     2    14 1   
     6     3     4 ar  
     7     3    15 1   
     8     4     5 ar  
     9     4    16 1   
    10     5     6 1   
    11     5     8 ar  
    12     6     7 1   
    13     6    17 1   
    14     6    18 1   
    15     7    19 1   
    16     7    20 1   
    17     7    21 1   
    18     8    22 1   
    19     9    13 1   
    20    10    13 1   
    21    11    13 1   
    22    12    13 1   
@<TRIPOS>SUBSTRUCTURE
     1 FW6         1 TEMP              0 ****  ****    0 ROOT
