@<TRIPOS>MOLECULE
FW7
   42    45     1     0     0
SMALL
No Charge or Current Charge


@<TRIPOS>ATOM
      1 C4          -0.0500    -1.9060     0.4750 ca         1 FW7      -0.059000
      2 C5           0.4090    -1.2990    -0.7120 ca         1 FW7      -0.130300
      3 C6          -0.4840    -0.3200    -1.4670 c3         1 FW7       0.134900
      4 C8          -2.1200     0.9920     0.0580 cc         1 FW7       0.618700
      5 C10         -0.7280     2.4600     0.7950 ca         1 FW7       0.088400
      6 C13          1.9240     3.0850     0.1760 ca         1 FW7       0.129000
      7 C15          1.2800     2.0370    -0.5100 ca         1 FW7      -0.102000
      8 C21         -5.0530    -1.2640     0.8800 c6         1 FW7       0.152300
      9 C22         -4.2020     0.0380     1.0410 c6         1 FW7       0.197300
     10 C24          2.5250    -2.4980    -0.4930 ca         1 FW7       0.064000
     11 C11         -0.1040     3.5070     1.4900 ca         1 FW7      -0.049000
     12 C12          1.2370     3.8180     1.1720 ca         1 FW7      -0.122000
     13 C16         -0.0520     1.7600    -0.1660 ca         1 FW7      -0.073200
     14 C18         -3.9260     0.1410    -1.4240 c6         1 FW7       0.197300
     15 C19         -4.7680    -1.1680    -1.5660 c6         1 FW7       0.152300
     16 C2           2.0610    -3.0960     0.6940 ca         1 FW7       0.192000
     17 C23          1.6990    -1.6030    -1.1950 ca         1 FW7      -0.060000
     18 C3           0.7760    -2.8020     1.1770 ca         1 FW7      -0.149000
     19 F1           2.8470    -3.9580     1.3790 f          1 FW7      -0.158000
     20 N17         -3.2470     0.2210    -0.0940 nh         1 FW7      -0.723600
     21 N20         -5.7350    -1.3530    -0.4450 n7         1 FW7      -0.862400
     22 N7          -0.9190     0.8180    -0.6370 na         1 FW7      -0.189600
     23 N9          -2.0280     1.9890     0.9550 nd         1 FW7      -0.611100
     24 Cl25         4.1370    -2.8560    -1.1140 cl         1 FW7      -0.164000
     25 H1          -1.0460    -1.6830     0.8550 ha         1 FW7       0.135000
     26 H2           0.0400     0.0710    -2.3480 h1         1 FW7       0.069700
     27 H3          -1.3630    -0.8660    -1.8280 h1         1 FW7       0.069700
     28 H4           1.8030     1.4700    -1.2750 ha         1 FW7       0.130000
     29 H5          -4.3880    -2.1330     0.9980 h1         1 FW7       0.038950
     30 H6          -5.8020    -1.3140     1.6840 h1         1 FW7       0.038950
     31 H7          -4.8790     0.9030     1.1010 h1         1 FW7       0.056200
     32 H8          -3.6590    -0.0140     1.9960 h1         1 FW7       0.056200
     33 H9          -0.6410     4.0620     2.2540 ha         1 FW7       0.133000
     34 H10          1.7440     4.6240     1.6960 ha         1 FW7       0.130000
     35 H11         -3.2010     0.1950    -2.2470 h1         1 FW7       0.056200
     36 H12         -4.5980     1.0040    -1.5420 h1         1 FW7       0.056200
     37 H13         -5.3110    -1.1520    -2.5230 h1         1 FW7       0.038950
     38 H14         -4.0800    -2.0270    -1.5940 h1         1 FW7       0.038950
     39 H15          2.0650    -1.1450    -2.1110 ha         1 FW7       0.130000
     40 H16          0.4230    -3.2680     2.0930 ha         1 FW7       0.138000
     41 H17         -6.1840    -2.2750    -0.5340 hn         1 FW7       0.417000
     42 Cl14         3.5940     3.4820    -0.2060 cl         1 FW7      -0.207000
@<TRIPOS>BOND
     1     1     2 ar  
     2     1    18 ar  
     3     1    25 1   
     4     2     3 1   
     5     2    17 ar  
     6     3    22 1   
     7     3    26 1   
     8     3    27 1   
     9     4    20 1   
    10     4    22 1   
    11     4    23 2   
    12     5    11 ar  
    13     5    13 ar  
    14     5    23 1   
    15     6     7 ar  
    16     6    12 ar  
    17     6    42 1   
    18     7    13 ar  
    19     7    28 1   
    20     8     9 1   
    21     8    21 1   
    22     8    29 1   
    23     8    30 1   
    24     9    20 1   
    25     9    31 1   
    26     9    32 1   
    27    10    16 ar  
    28    10    17 ar  
    29    10    24 1   
    30    11    12 ar  
    31    11    33 1   
    32    12    34 1   
    33    13    22 1   
    34    14    15 1   
    35    14    20 1   
    36    14    35 1   
    37    14    36 1   
    38    15    21 1   
    39    15    37 1   
    40    15    38 1   
    41    16    18 ar  
    42    16    19 1   
    43    17    39 1   
    44    18    40 1   
    45    21    41 1   
@<TRIPOS>SUBSTRUCTURE
     1 FW7         1 TEMP              0 ****  ****    0 ROOT
