@<TRIPOS>MOLECULE
FW7
   42    45     1     0     0
SMALL
abcg2


@<TRIPOS>ATOM
      1 C4          -0.2830    -2.0920     0.2550 ca         1 FW7      -0.059000
      2 C5           0.3110    -1.3150    -0.7370 ca         1 FW7      -0.130300
      3 C6          -0.5180    -0.3330    -1.5230 c3         1 FW7       0.134900
      4 C8          -2.0360     0.9160     0.0710 cc         1 FW7       0.618700
      5 C10         -0.7070     2.4150     0.7900 ca         1 FW7       0.088400
      6 C13          1.8350     3.1560     0.0360 ca         1 FW7       0.129000
      7 C15          1.2420     2.1160    -0.6630 ca         1 FW7      -0.102000
      8 C21         -4.8450    -1.2990     0.8910 c6         1 FW7       0.152300
      9 C22         -3.9840    -0.0610     1.0620 c6         1 FW7       0.197300
     10 C24          2.4310    -2.3340    -0.2310 ca         1 FW7       0.064000
     11 C11         -0.0840     3.4580     1.4660 ca         1 FW7      -0.049000
     12 C12          1.1960     3.8240     1.0820 ca         1 FW7      -0.122000
     13 C16         -0.0370     1.7670    -0.2590 ca         1 FW7      -0.073200
     14 C18         -3.8340     0.1200    -1.3460 c6         1 FW7       0.197300
     15 C19         -4.6910    -1.1220    -1.4860 c6         1 FW7       0.152300
     16 C2           1.8240    -3.0900     0.7560 ca         1 FW7       0.192000
     17 C23          1.6720    -1.4440    -0.9770 ca         1 FW7      -0.060000
     18 C3           0.4700    -2.9790     1.0050 ca         1 FW7      -0.149000
     19 F1           2.5620    -3.9380     1.4730 f          1 FW7      -0.158000
     20 N17         -3.0910     0.0550    -0.0840 nh         1 FW7      -0.723600
     21 N20         -5.5880    -1.2110    -0.3510 n7         1 FW7      -0.862400
     22 N7          -0.9100     0.8050    -0.7110 na         1 FW7      -0.189600
     23 N9          -1.9540     1.8670     0.9610 nd         1 FW7      -0.611100
     24 CL25         4.1210    -2.5060    -0.5140 cl         1 FW7      -0.164000
     25 H1          -1.3470    -2.0090     0.4410 ha         1 FW7       0.135000
     26 H2           0.0270     0.0290    -2.3950 h1         1 FW7       0.069700
     27 H3          -1.4130    -0.8220    -1.8990 h1         1 FW7       0.069700
     28 H4           1.7590     1.6190    -1.4730 ha         1 FW7       0.130000
     29 H5          -4.1940    -2.1870     0.9380 h1         1 FW7       0.038950
     30 H6          -5.5430    -1.3610     1.7280 h1         1 FW7       0.038950
     31 H7          -4.6220     0.8260     1.1600 h1         1 FW7       0.056200
     32 H8          -3.3900    -0.1470     1.9710 h1         1 FW7       0.056200
     33 H9          -0.5840     3.9730     2.2760 ha         1 FW7       0.133000
     34 H10          1.7050     4.6300     1.5930 ha         1 FW7       0.130000
     35 H11         -3.1500     0.1970    -2.1900 h1         1 FW7       0.056200
     36 H12         -4.4710     1.0150    -1.3620 h1         1 FW7       0.056200
     37 H13         -5.2730    -1.0510    -2.4060 h1         1 FW7       0.038950
     38 H14         -4.0270    -1.9960    -1.5790 h1         1 FW7       0.038950
     39 H15          2.1520    -0.8580    -1.7500 ha         1 FW7       0.130000
     40 H16          0.0130    -3.5860     1.7770 ha         1 FW7       0.138000
     41 H17         -6.1900    -2.0180    -0.4490 hn         1 FW7       0.417000
     42 CL14         3.4400     3.6480    -0.4100 cl         1 FW7      -0.207000
@<TRIPOS>BOND
     1     1     2 ar  
     2     1    18 ar  
     3     1    25 1   
     4     2     3 1   
     5     2    17 ar  
     6     3    22 1   
     7     3    26 1   
     8     3    27 1   
     9     4    20 1   
    10     4    22 1   
    11     4    23 2   
    12     5    11 ar  
    13     5    13 ar  
    14     5    23 1   
    15     6     7 ar  
    16     6    12 ar  
    17     6    42 1   
    18     7    13 ar  
    19     7    28 1   
    20     8     9 1   
    21     8    21 1   
    22     8    29 1   
    23     8    30 1   
    24     9    20 1   
    25     9    31 1   
    26     9    32 1   
    27    10    16 ar  
    28    10    17 ar  
    29    10    24 1   
    30    11    12 ar  
    31    11    33 1   
    32    12    34 1   
    33    13    22 1   
    34    14    15 1   
    35    14    20 1   
    36    14    35 1   
    37    14    36 1   
    38    15    21 1   
    39    15    37 1   
    40    15    38 1   
    41    16    18 ar  
    42    16    19 1   
    43    17    39 1   
    44    18    40 1   
    45    21    41 1   
@<TRIPOS>SUBSTRUCTURE
     1 FW7         1 TEMP              0 ****  ****    0 ROOT
