@<TRIPOS>MOLECULE
FW8
   81    88     1     0     0
SMALL
abcg2


@<TRIPOS>ATOM
      1 OBT        -10.5460    -2.3030     0.7890 o          1 FW8      -0.543000
      2 CBM         -9.4520    -1.7620     0.7730 c          1 FW8       0.583600
      3 NBS         -8.2880    -2.2700     1.2340 n          1 FW8      -0.413800
      4 CBR         -8.0780    -3.6070     1.7350 c6         1 FW8       0.110000
      5 CBQ         -7.0780    -4.3480     0.8550 c6         1 FW8      -0.100400
      6 CBP         -5.8100    -3.5220     0.6560 c6         1 FW8      -0.075400
      7 CBO         -6.1350    -2.1410     0.0940 c6         1 FW8      -0.085400
      8 CBN         -7.1340    -1.4200     1.0010 c5         1 FW8       0.155000
      9 CBG         -7.7660    -0.2010     0.3990 ca         1 FW8      -0.128300
     10 CBH         -9.1240    -0.4160     0.2500 ca         1 FW8      -0.138600
     11 CBI         -9.9620     0.5250    -0.3220 ca         1 FW8      -0.057000
     12 CBJ         -9.3860     1.7210    -0.7290 ca         1 FW8      -0.103000
     13 CBK         -8.0250     1.9640    -0.5600 ca         1 FW8      -0.090000
     14 CBF         -7.1890     1.0000     0.0050 ca         1 FW8      -0.003000
     15 NBE         -5.8240     1.2100     0.2330 ns         1 FW8      -0.178000
     16 CBC         -4.9600     1.7950    -0.6540 c          1 FW8       0.671100
     17 OBL         -5.3130     2.3170    -1.6900 o          1 FW8      -0.566100
     18 NBD         -3.6520     1.7060    -0.2370 ns         1 FW8      -0.347900
     19 CAY         -2.5540     2.2550    -0.8960 ca         1 FW8       0.490900
     20 CAX         -1.3510     1.5520    -0.8680 ca         1 FW8      -0.183000
     21 NBB         -2.6940     3.4340    -1.4790 nb         1 FW8      -0.667000
     22 CAZ         -1.6260     3.9490    -2.0800 ca         1 FW8       0.369900
     23 CBA         -0.3860     3.3440    -2.1090 ca         1 FW8      -0.190000
     24 CAW         -0.2360     2.1070    -1.4780 ca         1 FW8      -0.038500
     25 CAS          1.0400     1.4050    -1.4740 cc         1 FW8       0.243500
     26 CAR          2.2640     1.7980    -1.9660 cd         1 FW8      -0.183000
     27 NAV          1.1920     0.1680    -0.9460 nc         1 FW8      -0.348000
     28 NAU          2.4120    -0.2070    -1.0860 nd         1 FW8      -0.198800
     29 NAT          3.0700     0.7620    -1.7030 na         1 FW8       0.123800
     30 CAQ          4.4930     0.6350    -1.9430 c3         1 FW8       0.068600
     31 CAP          5.2850     0.8740    -0.6610 c3         1 FW8       0.184800
     32 NAO          6.7090     0.7360    -0.9080 nu         1 FW8      -0.951200
     33 CAG          7.5190     0.0270    -0.0370 ca         1 FW8       0.316000
     34 CAH          7.3100    -1.3250     0.1950 ca         1 FW8      -0.151300
     35 CAM          6.2320    -2.0810    -0.5390 c6         1 FW8      -0.022100
     36 CAL          6.4380    -3.5890    -0.5360 c6         1 FW8      -0.074400
     37 CAK          6.7280    -4.0690     0.8760 c6         1 FW8      -0.074400
     38 CAJ          8.0390    -3.4710     1.3580 c6         1 FW8      -0.133700
     39 CAI          8.1870    -1.9960     1.0840 ca         1 FW8       0.399300
     40 NAN          9.2010    -1.4170     1.6830 nb         1 FW8      -0.691000
     41 CAE          9.4370    -0.1110     1.4520 ca         1 FW8       0.294000
     42 CAF          8.6180     0.6750     0.6060 ca         1 FW8      -0.117000
     43 CAA          8.9150     2.0510     0.4620 ca         1 FW8      -0.100000
     44 CAB          9.9890     2.6100     1.1020 ca         1 FW8      -0.109000
     45 CAC         10.8160     1.8200     1.9250 ca         1 FW8      -0.101000
     46 CAD         10.5410     0.4920     2.1000 ca         1 FW8      -0.083000
     47 H1          -7.6970    -3.5450     2.7600 h1         1 FW8       0.058200
     48 H2          -9.0370    -4.1220     1.7740 h1         1 FW8       0.058200
     49 H3          -6.8410    -5.3090     1.3150 hc         1 FW8       0.052700
     50 H4          -7.5370    -4.5610    -0.1150 hc         1 FW8       0.052700
     51 H5          -5.2870    -3.4170     1.6130 hc         1 FW8       0.043200
     52 H6          -5.1260    -4.0400    -0.0180 hc         1 FW8       0.043200
     53 H7          -5.2270    -1.5450    -0.0080 hc         1 FW8       0.053200
     54 H8          -6.5720    -2.2370    -0.9040 hc         1 FW8       0.053200
     55 H9          -6.6530    -1.1900     1.9610 h1         1 FW8       0.059700
     56 H10        -11.0210     0.3400    -0.4410 ha         1 FW8       0.138000
     57 H11        -10.0000     2.4930    -1.1730 ha         1 FW8       0.122000
     58 H12         -7.6240     2.9200    -0.8600 ha         1 FW8       0.143000
     59 H13         -5.4420     0.7840     1.0640 hn         1 FW8       0.149000
     60 H14         -3.4320     1.0340     0.4820 hn         1 FW8       0.151000
     61 H15         -1.2940     0.5870    -0.3810 ha         1 FW8       0.141000
     62 H16         -1.7680     4.9110    -2.5590 h4         1 FW8       0.024100
     63 H17          0.4370     3.8300    -2.6150 ha         1 FW8       0.120000
     64 H18          2.6070     2.6920    -2.4590 h4         1 FW8       0.171000
     65 H19          4.6840    -0.3620    -2.3370 h1         1 FW8       0.078700
     66 H20          4.7660     1.3580    -2.7090 h1         1 FW8       0.078700
     67 H21          5.0600     1.8720    -0.2760 h1         1 FW8       0.058700
     68 H22          4.9690     0.1690     0.1050 h1         1 FW8       0.058700
     69 H23          7.1150     1.6030    -1.2230 hn         1 FW8       0.456000
     70 H24          5.2520    -1.8730    -0.0970 hc         1 FW8       0.050200
     71 H25          6.1830    -1.7100    -1.5670 hc         1 FW8       0.050200
     72 H26          5.5480    -4.0740    -0.9410 hc         1 FW8       0.045700
     73 H27          7.2710    -3.8580    -1.1940 hc         1 FW8       0.045700
     74 H28          5.9090    -3.7730     1.5390 hc         1 FW8       0.046200
     75 H29          6.7850    -5.1580     0.9190 hc         1 FW8       0.046200
     76 H30          8.1840    -3.6400     2.4270 hc         1 FW8       0.064200
     77 H31          8.8710    -3.9820     0.8600 hc         1 FW8       0.064200
     78 H32          8.2930     2.6920    -0.1470 ha         1 FW8       0.100000
     79 H33         10.1990     3.6640     0.9810 ha         1 FW8       0.114000
     80 H34         11.6640     2.2710     2.4240 ha         1 FW8       0.118000
     81 H35         11.1580    -0.1290     2.7370 ha         1 FW8       0.132000
@<TRIPOS>BOND
     1     1     2 2   
     2     2     3 1   
     3     2    10 1   
     4     3     4 1   
     5     3     8 1   
     6     4     5 1   
     7     4    47 1   
     8     4    48 1   
     9     5     6 1   
    10     5    49 1   
    11     5    50 1   
    12     6     7 1   
    13     6    51 1   
    14     6    52 1   
    15     7     8 1   
    16     7    53 1   
    17     7    54 1   
    18     8     9 1   
    19     8    55 1   
    20     9    10 ar  
    21     9    14 ar  
    22    10    11 ar  
    23    11    12 ar  
    24    11    56 1   
    25    12    13 ar  
    26    12    57 1   
    27    13    14 ar  
    28    13    58 1   
    29    14    15 1   
    30    15    16 1   
    31    15    59 1   
    32    16    17 2   
    33    16    18 1   
    34    18    19 1   
    35    18    60 1   
    36    19    20 ar  
    37    19    21 ar  
    38    20    24 ar  
    39    20    61 1   
    40    21    22 ar  
    41    22    23 ar  
    42    22    62 1   
    43    23    24 ar  
    44    23    63 1   
    45    24    25 1   
    46    25    26 2   
    47    25    27 1   
    48    26    29 1   
    49    26    64 1   
    50    27    28 2   
    51    28    29 1   
    52    29    30 1   
    53    30    31 1   
    54    30    65 1   
    55    30    66 1   
    56    31    32 1   
    57    31    67 1   
    58    31    68 1   
    59    32    33 1   
    60    32    69 1   
    61    33    34 ar  
    62    33    42 ar  
    63    34    35 1   
    64    34    39 ar  
    65    35    36 1   
    66    35    70 1   
    67    35    71 1   
    68    36    37 1   
    69    36    72 1   
    70    36    73 1   
    71    37    38 1   
    72    37    74 1   
    73    37    75 1   
    74    38    39 1   
    75    38    76 1   
    76    38    77 1   
    77    39    40 ar  
    78    40    41 ar  
    79    41    42 ar  
    80    41    46 ar  
    81    42    43 ar  
    82    43    44 ar  
    83    43    78 1   
    84    44    45 ar  
    85    44    79 1   
    86    45    46 ar  
    87    45    80 1   
    88    46    81 1   
@<TRIPOS>SUBSTRUCTURE
     1 FW8         1 TEMP              0 ****  ****    0 ROOT
