@<TRIPOS>MOLECULE
FW8
   81    88     1     0     0
SMALL
No Charge or Current Charge


@<TRIPOS>ATOM
      1 OBT        -11.2150    -1.6470     0.8730 o          1 FW8      -0.543000
      2 CBM        -10.0460    -1.2960     0.7850 c          1 FW8       0.583600
      3 NBS         -8.9170    -2.0710     1.0660 n          1 FW8      -0.413800
      4 CBR         -8.9420    -3.5150     1.3680 c6         1 FW8       0.110000
      5 CBQ         -8.1310    -4.2900     0.2980 c6         1 FW8      -0.100400
      6 CBP         -6.7300    -3.6580     0.0670 c6         1 FW8      -0.075400
      7 CBO         -6.8450    -2.1540    -0.3030 c6         1 FW8      -0.085400
      8 CBN         -7.6260    -1.3800     0.7900 c5         1 FW8       0.155000
      9 CBG         -8.1490    -0.0160     0.3330 ca         1 FW8      -0.128300
     10 CBH         -9.5370     0.0180     0.3430 ca         1 FW8      -0.138600
     11 CBI        -10.2620     1.1550    -0.0350 ca         1 FW8      -0.057000
     12 CBJ         -9.5380     2.2970    -0.4240 ca         1 FW8      -0.103000
     13 CBK         -8.1250     2.2830    -0.4290 ca         1 FW8      -0.090000
     14 CBF         -7.4070     1.1200    -0.0500 ca         1 FW8      -0.003000
     15 NBE         -5.9880     1.0530    -0.0150 ns         1 FW8      -0.178000
     16 CBC         -5.0050     1.9080    -0.4880 c          1 FW8       0.671100
     17 OBL         -5.2230     2.9410    -1.1070 o          1 FW8      -0.566100
     18 NBD         -3.7470     1.4310    -0.2060 ns         1 FW8      -0.347900
     19 CAY         -2.4930     1.9990    -0.4600 ca         1 FW8       0.490900
     20 CAX         -1.3920     1.1910    -0.7810 ca         1 FW8      -0.183000
     21 NBB         -2.4050     3.3270    -0.2570 nb         1 FW8      -0.667000
     22 CAZ         -1.1950     3.9010    -0.4280 ca         1 FW8       0.369900
     23 CBA         -0.0440     3.1760    -0.7800 ca         1 FW8      -0.190000
     24 CAW         -0.1240     1.7790    -0.9630 ca         1 FW8      -0.038500
     25 CAS          1.0470     0.9560    -1.3130 cc         1 FW8       0.243500
     26 CAR          2.2830     1.4810    -1.5270 cd         1 FW8      -0.183000
     27 NAV          1.0400    -0.3990    -1.4660 nc         1 FW8      -0.348000
     28 NAU          2.2580    -0.7710    -1.7750 nd         1 FW8      -0.198800
     29 NAT          3.0350     0.3640    -1.8190 na         1 FW8       0.123800
     30 CAQ          4.4690     0.3080    -2.1310 c3         1 FW8       0.068600
     31 CAP          5.3430     0.1510    -0.8720 c3         1 FW8       0.184800
     32 NAO          6.7800     0.0880    -1.2120 nu         1 FW8      -0.951200
     33 CAG          7.7880    -0.1910    -0.2760 ca         1 FW8       0.316000
     34 CAH          7.9840    -1.5070     0.1940 ca         1 FW8      -0.151300
     35 CAM          7.1160    -2.6850    -0.2960 c6         1 FW8      -0.022100
     36 CAL          7.7380    -4.0710    -0.0150 c6         1 FW8      -0.074400
     37 CAK          8.2290    -4.1560     1.4420 c6         1 FW8      -0.074400
     38 CAJ          9.3390    -3.1100     1.6940 c6         1 FW8      -0.133700
     39 CAI          9.0150    -1.7220     1.1320 ca         1 FW8       0.399300
     40 NAN          9.8230    -0.7420     1.5830 nb         1 FW8      -0.691000
     41 CAE          9.6460     0.5150     1.1290 ca         1 FW8       0.294000
     42 CAF          8.6350     0.8410     0.1920 ca         1 FW8      -0.117000
     43 CAA          8.4910     2.1840    -0.2420 ca         1 FW8      -0.100000
     44 CAB          9.3460     3.1850     0.2450 ca         1 FW8      -0.109000
     45 CAC         10.3490     2.8610     1.1670 ca         1 FW8      -0.101000
     46 CAD         10.4930     1.5350     1.6040 ca         1 FW8      -0.083000
     47 H1          -8.4960    -3.6770     2.3590 h1         1 FW8       0.058200
     48 H2          -9.9760    -3.8870     1.3990 h1         1 FW8       0.058200
     49 H3          -8.0280    -5.3410     0.5990 hc         1 FW8       0.052700
     50 H4          -8.6900    -4.2900    -0.6480 hc         1 FW8       0.052700
     51 H5          -6.1190    -3.7700     0.9740 hc         1 FW8       0.043200
     52 H6          -6.2040    -4.1990    -0.7320 hc         1 FW8       0.043200
     53 H7          -5.8450    -1.7220    -0.4360 hc         1 FW8       0.053200
     54 H8          -7.3640    -2.0550    -1.2660 hc         1 FW8       0.053200
     55 H9          -7.0200    -1.2980     1.7030 h1         1 FW8       0.059700
     56 H10        -11.3500     1.1560    -0.0260 ha         1 FW8       0.138000
     57 H11        -10.0710     3.1990    -0.7180 ha         1 FW8       0.122000
     58 H12         -7.6080     3.1920    -0.7180 ha         1 FW8       0.143000
     59 H13         -5.6300     0.2290     0.4490 hn         1 FW8       0.149000
     60 H14         -3.7100     0.5290     0.2480 hn         1 FW8       0.151000
     61 H15         -1.5330     0.1200    -0.8920 ha         1 FW8       0.141000
     62 H16         -1.1450     4.9780    -0.2730 h4         1 FW8       0.024100
     63 H17          0.8920     3.7130    -0.8950 ha         1 FW8       0.120000
     64 H18          2.6730     2.4890    -1.4990 h4         1 FW8       0.171000
     65 H19          4.6500    -0.5370    -2.8060 h1         1 FW8       0.078700
     66 H20          4.7460     1.2290    -2.6580 h1         1 FW8       0.078700
     67 H21          5.1560     0.9970    -0.1950 h1         1 FW8       0.058700
     68 H22          5.0330    -0.7620    -0.3470 h1         1 FW8       0.058700
     69 H23          7.0740     0.7960    -1.8870 hn         1 FW8       0.456000
     70 H24          6.1380    -2.6360     0.2010 hc         1 FW8       0.050200
     71 H25          6.9200    -2.5980    -1.3730 hc         1 FW8       0.050200
     72 H26          6.9980    -4.8590    -0.2120 hc         1 FW8       0.045700
     73 H27          8.5770    -4.2500    -0.7020 hc         1 FW8       0.045700
     74 H28          7.3880    -3.9810     2.1270 hc         1 FW8       0.046200
     75 H29          8.6080    -5.1650     1.6590 hc         1 FW8       0.046200
     76 H30          9.5350    -3.0420     2.7720 hc         1 FW8       0.064200
     77 H31         10.2730    -3.4600     1.2340 hc         1 FW8       0.064200
     78 H32          7.7170     2.4690    -0.9500 ha         1 FW8       0.100000
     79 H33          9.2280     4.2120    -0.0930 ha         1 FW8       0.114000
     80 H34         11.0130     3.6350     1.5460 ha         1 FW8       0.118000
     81 H35         11.2710     1.2900     2.3220 ha         1 FW8       0.132000
@<TRIPOS>BOND
     1     1     2 2   
     2     2     3 1   
     3     2    10 1   
     4     3     4 1   
     5     3     8 1   
     6     4     5 1   
     7     4    47 1   
     8     4    48 1   
     9     5     6 1   
    10     5    49 1   
    11     5    50 1   
    12     6     7 1   
    13     6    51 1   
    14     6    52 1   
    15     7     8 1   
    16     7    53 1   
    17     7    54 1   
    18     8     9 1   
    19     8    55 1   
    20     9    10 ar  
    21     9    14 ar  
    22    10    11 ar  
    23    11    12 ar  
    24    11    56 1   
    25    12    13 ar  
    26    12    57 1   
    27    13    14 ar  
    28    13    58 1   
    29    14    15 1   
    30    15    16 1   
    31    15    59 1   
    32    16    17 2   
    33    16    18 1   
    34    18    19 1   
    35    18    60 1   
    36    19    20 ar  
    37    19    21 ar  
    38    20    24 ar  
    39    20    61 1   
    40    21    22 ar  
    41    22    23 ar  
    42    22    62 1   
    43    23    24 ar  
    44    23    63 1   
    45    24    25 1   
    46    25    26 2   
    47    25    27 1   
    48    26    29 1   
    49    26    64 1   
    50    27    28 2   
    51    28    29 1   
    52    29    30 1   
    53    30    31 1   
    54    30    65 1   
    55    30    66 1   
    56    31    32 1   
    57    31    67 1   
    58    31    68 1   
    59    32    33 1   
    60    32    69 1   
    61    33    34 ar  
    62    33    42 ar  
    63    34    35 1   
    64    34    39 ar  
    65    35    36 1   
    66    35    70 1   
    67    35    71 1   
    68    36    37 1   
    69    36    72 1   
    70    36    73 1   
    71    37    38 1   
    72    37    74 1   
    73    37    75 1   
    74    38    39 1   
    75    38    76 1   
    76    38    77 1   
    77    39    40 ar  
    78    40    41 ar  
    79    41    42 ar  
    80    41    46 ar  
    81    42    43 ar  
    82    43    44 ar  
    83    43    78 1   
    84    44    45 ar  
    85    44    79 1   
    86    45    46 ar  
    87    45    80 1   
    88    46    81 1   
@<TRIPOS>SUBSTRUCTURE
     1 FW8         1 TEMP              0 ****  ****    0 ROOT
