@<TRIPOS>MOLECULE
FW9
   44    47     1     0     0
SMALL
bcc


@<TRIPOS>ATOM
      1 N12         18.4500    62.8480    39.0260 nv         1 FW9      -0.948500
      2 C17         15.1540    65.9760    41.1710 ca         1 FW9      -0.105300
      3 C20         16.6770    67.5740    42.8210 ca         1 FW9       0.056100
      4 C22         17.0640    69.7630    42.7850 c5         1 FW9       0.328200
      5 C24         15.9120    68.1320    41.8070 ca         1 FW9       0.051100
      6 C26         15.9370    65.1590    36.9110 ca         1 FW9      -0.483600
      7 C01         20.2420    63.8250    31.2060 c3         1 FW9       0.126700
      8 C03         18.8520    64.4390    33.0280 ca         1 FW9       0.128100
      9 C04         18.4650    64.1950    34.3460 ca         1 FW9      -0.117000
     10 C05         17.4940    64.9720    34.9630 cp         1 FW9      -0.120500
     11 C06         16.9090    66.0220    34.2480 ca         1 FW9      -0.145000
     12 C07         17.2970    66.2630    32.9430 ca         1 FW9      -0.103000
     13 C08         18.2630    65.4830    32.3190 ca         1 FW9      -0.204000
     14 C09         17.1090    64.6800    36.3650 cp         1 FW9       0.574800
     15 C11         17.6210    63.6550    38.3250 ca         1 FW9       0.938900
     16 C14         15.6880    64.8350    38.2610 ca         1 FW9       0.748200
     17 C16         14.3100    65.0920    40.2810 c3         1 FW9       0.287100
     18 C18         15.9240    65.4280    42.1850 ca         1 FW9      -0.104000
     19 C19         16.7040    66.2210    43.0380 ca         1 FW9      -0.118000
     20 C25         15.1420    67.3670    40.9700 ca         1 FW9      -0.109000
     21 N10         17.9580    63.9210    37.0660 nb         1 FW9      -0.813000
     22 N13         16.5300    64.0860    38.9620 nb         1 FW9      -0.847000
     23 N15         14.5680    65.2660    38.8710 nu         1 FW9      -0.878900
     24 O21         17.3160    68.5610    43.4980 os         1 FW9      -0.321900
     25 O23         16.0510    69.4800    41.8300 os         1 FW9      -0.322900
     26 H121        19.3730    62.6870    38.6620 hn         1 FW9       0.433300
     27 H122        18.3490    62.8160    40.0260 hn         1 FW9       0.433300
     28 H221        17.9750    70.0920    42.2750 h2         1 FW9       0.063700
     29 H222        16.7160    70.5350    43.4740 h2         1 FW9       0.063700
     30 H261        15.2270    65.7510    36.3520 ha         1 FW9       0.146000
     31 H011        21.0050    63.0750    31.0160 h1         1 FW9       0.039033
     32 H013        19.4370    63.6970    30.4780 h1         1 FW9       0.039033
     33 H012        20.6840    64.8160    31.0710 h1         1 FW9       0.039033
     34 H041        18.9290    63.3830    34.8910 ha         1 FW9       0.168000
     35 H061        16.1680    66.6640    34.7040 ha         1 FW9       0.132000
     36 H071        16.8470    67.0800    32.3940 ha         1 FW9       0.128000
     37 H081        18.5390    65.7020    31.2960 ha         1 FW9       0.134000
     38 H161        13.2530    65.3140    40.4340 h1         1 FW9       0.061200
     39 H162        14.4560    64.0470    40.5580 h1         1 FW9       0.061200
     40 H181        15.9320    64.3540    42.3220 ha         1 FW9       0.141000
     41 H191        17.3010    65.7800    43.8250 ha         1 FW9       0.151000
     42 H251        14.5470    67.8170    40.1850 ha         1 FW9       0.145000
     43 H151        13.9660    65.8880    38.3580 hn         1 FW9       0.437800
     44 O02         19.7980    63.6200    32.5310 os         1 FW9      -0.316900
@<TRIPOS>BOND
     1     1    15 1   
     2     1    26 1   
     3     1    27 1   
     4     2    17 1   
     5     2    18 ar  
     6     2    20 ar  
     7     3     5 ar  
     8     3    19 ar  
     9     3    24 1   
    10     4    24 1   
    11     4    25 1   
    12     4    28 1   
    13     4    29 1   
    14     5    20 ar  
    15     5    25 1   
    16     6    14 ar  
    17     6    16 ar  
    18     6    30 1   
    19     7    31 1   
    20     7    32 1   
    21     7    33 1   
    22     7    44 1   
    23     8     9 ar  
    24     8    13 ar  
    25     8    44 1   
    26     9    10 ar  
    27     9    34 1   
    28    10    11 ar  
    29    10    14 1   
    30    11    12 ar  
    31    11    35 1   
    32    12    13 ar  
    33    12    36 1   
    34    13    37 1   
    35    14    21 ar  
    36    15    21 ar  
    37    15    22 ar  
    38    16    22 ar  
    39    16    23 1   
    40    17    23 1   
    41    17    38 1   
    42    17    39 1   
    43    18    19 ar  
    44    18    40 1   
    45    19    41 1   
    46    20    42 1   
    47    23    43 1   
@<TRIPOS>SUBSTRUCTURE
     1 FW9         1 TEMP              0 ****  ****    0 ROOT
