@<TRIPOS>MOLECULE
FW9
   44    47     1     0     0
SMALL
No Charge or Current Charge


@<TRIPOS>ATOM
      1 N12         18.2510    62.4490    39.0350 nv         1 FW9      -1.058900
      2 C17         15.1120    66.0220    41.1700 ca         1 FW9      -0.105300
      3 C20         16.8260    67.7440    42.5460 ca         1 FW9       0.056100
      4 C22         16.9350    69.9500    42.6500 c5         1 FW9       0.374600
      5 C24         15.8050    68.2520    41.7930 ca         1 FW9       0.051100
      6 C26         15.9260    65.0470    37.0600 ca         1 FW9      -0.335000
      7 C01         20.2780    63.8830    31.0870 c3         1 FW9       0.149900
      8 C03         18.8920    64.4630    33.0470 ca         1 FW9       0.128100
      9 C04         18.4690    64.1170    34.3410 ca         1 FW9      -0.099000
     10 C05         17.5490    64.9230    35.0700 cp         1 FW9      -0.120500
     11 C06         17.0790    66.1030    34.4360 ca         1 FW9      -0.127000
     12 C07         17.4990    66.4560    33.1430 ca         1 FW9      -0.085000
     13 C08         18.4020    65.6400    32.4450 ca         1 FW9      -0.186000
     14 C09         17.1030    64.5400    36.4570 cp         1 FW9       0.246500
     15 C11         17.4660    63.3280    38.3710 ca         1 FW9       0.412900
     16 C14         15.6120    64.6230    38.3520 ca         1 FW9       0.419900
     17 C16         14.1760    65.0810    40.4180 c3         1 FW9       0.287100
     18 C18         16.1730    65.5000    41.9550 ca         1 FW9      -0.086000
     19 C19         17.0430    66.3650    42.6540 ca         1 FW9      -0.100000
     20 C25         14.9230    67.4220    41.0910 ca         1 FW9      -0.091000
     21 N10         17.8670    63.6640    37.1400 nb         1 FW9      -0.287000
     22 N13         16.3830    63.7560    39.0220 nb         1 FW9      -0.321000
     23 N15         14.4690    65.0980    38.9740 nu         1 FW9      -0.934100
     24 O21         17.5560    68.7130    43.1540 os         1 FW9      -0.345100
     25 O23         15.7610    69.6090    41.8300 os         1 FW9      -0.346100
     26 H121        19.1870    62.2760    38.6780 hn         1 FW9       0.488500
     27 H122        18.1120    62.3380    40.0360 hn         1 FW9       0.488500
     28 H221        17.6610    70.4890    42.0300 h2         1 FW9       0.063700
     29 H222        16.6240    70.5760    43.4950 h2         1 FW9       0.063700
     30 H261        15.2740    65.7350    36.5370 ha         1 FW9       0.128000
     31 H011        20.9700    63.0910    30.7760 h1         1 FW9       0.039033
     32 H013        19.4540    63.9180    30.3630 h1         1 FW9       0.039033
     33 H012        20.8170    64.8380    31.0540 h1         1 FW9       0.039033
     34 H041        18.8580    63.2010    34.7780 ha         1 FW9       0.150000
     35 H061        16.3910    66.7680    34.9510 ha         1 FW9       0.114000
     36 H071        17.1240    67.3680    32.6820 ha         1 FW9       0.110000
     37 H081        18.7100    65.9370    31.4460 ha         1 FW9       0.116000
     38 H161        13.1390    65.4030    40.5930 h1         1 FW9       0.061200
     39 H162        14.2670    64.0600    40.8170 h1         1 FW9       0.061200
     40 H181        16.3240    64.4250    42.0210 ha         1 FW9       0.123000
     41 H191        17.8570    65.9750    43.2590 ha         1 FW9       0.133000
     42 H251        14.1180    67.8490    40.4990 ha         1 FW9       0.127000
     43 H151        13.9160    65.7420    38.4090 hn         1 FW9       0.493000
     44 O02         19.7830    63.6200    32.4120 os         1 FW9      -0.340100
@<TRIPOS>BOND
     1     1    15 1   
     2     1    26 1   
     3     1    27 1   
     4     2    17 1   
     5     2    18 ar  
     6     2    20 ar  
     7     3     5 ar  
     8     3    19 ar  
     9     3    24 1   
    10     4    24 1   
    11     4    25 1   
    12     4    28 1   
    13     4    29 1   
    14     5    20 ar  
    15     5    25 1   
    16     6    14 ar  
    17     6    16 ar  
    18     6    30 1   
    19     7    31 1   
    20     7    32 1   
    21     7    33 1   
    22     7    44 1   
    23     8     9 ar  
    24     8    13 ar  
    25     8    44 1   
    26     9    10 ar  
    27     9    34 1   
    28    10    11 ar  
    29    10    14 1   
    30    11    12 ar  
    31    11    35 1   
    32    12    13 ar  
    33    12    36 1   
    34    13    37 1   
    35    14    21 ar  
    36    15    21 ar  
    37    15    22 ar  
    38    16    22 ar  
    39    16    23 1   
    40    17    23 1   
    41    17    38 1   
    42    17    39 1   
    43    18    19 ar  
    44    18    40 1   
    45    19    41 1   
    46    20    42 1   
    47    23    43 1   
@<TRIPOS>SUBSTRUCTURE
     1 FW9         1 TEMP              0 ****  ****    0 ROOT
