@<TRIPOS>MOLECULE
FWA
   66    71     1     0     0
SMALL
No Charge or Current Charge


@<TRIPOS>ATOM
      1 N1          -3.6840    -0.4100    -0.4830 nh         1 FWA      -0.757400
      2 N3           0.8540     2.4230     0.4790 nn         1 FWA      -0.711600
      3 C4          -4.5810     1.1950    -2.2400 c6         1 FWA       0.162800
      4 C5          -2.5790    -0.9920     0.2020 ca         1 FWA       0.292000
      5 C6          -2.6380    -2.3360     0.6410 ca         1 FWA      -0.151000
      6 C7          -1.5490    -2.9290     1.3140 ca         1 FWA       0.130000
      7 C8          -0.3790    -2.1940     1.5700 ca         1 FWA      -0.110000
      8 C10         -1.3830    -0.2660     0.4730 ca         1 FWA       0.119400
      9 C13          1.3960     4.3110     0.7060 cy         1 FWA      -0.131000
     10 C15          2.4790     4.9330    -0.1610 cy         1 FWA       0.150800
     11 C20          3.9830    -0.8700    -1.4870 ca         1 FWA      -0.111800
     12 C21          4.3070    -0.1370    -2.7830 c3         1 FWA      -0.040800
     13 C22          4.4800    -2.1680    -1.2520 ca         1 FWA       0.177000
     14 N           -5.9810     0.7230    -2.0100 n3         1 FWA      -0.719600
     15 C           -6.9930     1.7290    -2.3970 c3         1 FWA       0.153100
     16 C1          -6.1350     0.2650    -0.5940 c6         1 FWA       0.162800
     17 C11          0.1700     1.2420     0.6410 cc         1 FWA       0.628700
     18 C12          0.2390     3.7040    -0.0800 cy         1 FWA       0.212800
     19 C14          1.0650     5.5600     1.5020 cy         1 FWA       0.150800
     20 C16          1.8000     3.0690     1.4860 cy         1 FWA       0.212800
     21 C18          2.8740    -0.9230     0.6920 ca         1 FWA      -0.132300
     22 C19          3.1810    -0.2530    -0.5080 ca         1 FWA      -0.064500
     23 C2          -5.0920    -0.8290    -0.1930 c6         1 FWA       0.182800
     24 C23          4.1830    -2.8480    -0.0540 ca         1 FWA      -0.111800
     25 C25          3.3800    -2.2180     0.9160 ca         1 FWA      -0.064500
     26 C3          -3.5110     0.1160    -1.8730 c6         1 FWA       0.182800
     27 C9          -0.3400    -0.8630     1.1330 ca         1 FWA      -0.077200
     28 N2          -1.0680     1.0670     0.1600 nd         1 FWA      -0.603100
     29 N4           1.7930     6.2220     0.3210 n6         1 FWA      -0.840400
     30 N5           0.6480     0.0740     1.2430 na         1 FWA      -0.198600
     31 Cl          -1.6560    -4.6040     1.8350 cl         1 FWA      -0.212000
     32 H1          -4.4430     1.4780    -3.2930 h1         1 FWA       0.039200
     33 H2          -4.3840     2.0960    -1.6390 h1         1 FWA       0.039200
     34 H3          -3.5220    -2.9340     0.4490 ha         1 FWA       0.132000
     35 H4           0.4580    -2.6530     2.0880 ha         1 FWA       0.129000
     36 H5           3.4950     4.7720     0.2200 h1         1 FWA       0.052700
     37 H6           2.4230     4.7070    -1.2330 h1         1 FWA       0.052700
     38 H7           1.8980    -0.9010     2.6200 h1         1 FWA       0.062200
     39 H8           2.4930     0.6610     2.0910 h1         1 FWA       0.062200
     40 H9           5.3890    -0.0050    -2.9000 hc         1 FWA       0.048033
     41 H10          3.9420    -0.6980    -3.6520 hc         1 FWA       0.048033
     42 H11          3.8470     0.8580    -2.8160 hc         1 FWA       0.048033
     43 H12          5.8190    -4.2600     0.1780 hc         1 FWA       0.048033
     44 H13          4.4050    -4.6470     1.1680 hc         1 FWA       0.048033
     45 H14          4.3700    -4.9500    -0.5740 hc         1 FWA       0.048033
     46 H16         -6.8790     2.0060    -3.4530 h1         1 FWA       0.029367
     47 H17         -8.0070     1.3310    -2.2580 h1         1 FWA       0.029367
     48 H18         -6.8940     2.6390    -1.7890 h1         1 FWA       0.029367
     49 H19         -6.0210     1.1190     0.0900 h1         1 FWA       0.039200
     50 H20         -7.1450    -0.1400    -0.4330 h1         1 FWA       0.039200
     51 H21          0.2760     3.8210    -1.1700 h1         1 FWA       0.065950
     52 H22         -0.7550     3.9510     0.3120 h1         1 FWA       0.065950
     53 H23         -0.0030     5.7830     1.6190 h1         1 FWA       0.052700
     54 H24          1.5860     5.6160     2.4670 h1         1 FWA       0.052700
     55 H25          1.4520     3.0540     2.5260 h1         1 FWA       0.065950
     56 H26          2.8570     2.7850     1.4130 h1         1 FWA       0.065950
     57 H27          2.7950     0.7490    -0.6820 ha         1 FWA       0.117000
     58 H28         -5.3240    -1.7540    -0.7420 h1         1 FWA       0.040450
     59 H29         -5.2110    -1.0440     0.8790 h1         1 FWA       0.040450
     60 H30          3.1460    -2.7360     1.8430 ha         1 FWA       0.117000
     61 H31         -2.5140     0.5580    -2.0040 h1         1 FWA       0.040450
     62 H32         -3.5890    -0.7140    -2.5900 h1         1 FWA       0.040450
     63 H33          2.3860     7.0360     0.5300 hn         1 FWA       0.410000
     64 C17          1.9970    -0.2500     1.7420 c3         1 FWA       0.140900
     65 F            5.2520    -2.7690    -2.1890 f          1 FWA      -0.180000
     66 C24          4.7220    -4.2520     0.1950 c3         1 FWA      -0.040800
@<TRIPOS>BOND
     1     1     4 1   
     2     1    23 1   
     3     1    26 1   
     4     2    17 1   
     5     2    18 1   
     6     2    20 1   
     7     3    14 1   
     8     3    26 1   
     9     3    32 1   
    10     3    33 1   
    11     4     5 ar  
    12     4     8 ar  
    13     5     6 ar  
    14     5    34 1   
    15     6     7 ar  
    16     6    31 1   
    17     7    27 ar  
    18     7    35 1   
    19     8    27 ar  
    20     8    28 1   
    21     9    10 1   
    22     9    18 1   
    23     9    19 1   
    24     9    20 1   
    25    10    29 1   
    26    10    36 1   
    27    10    37 1   
    28    11    12 1   
    29    11    13 ar  
    30    11    22 ar  
    31    12    40 1   
    32    12    41 1   
    33    12    42 1   
    34    13    24 ar  
    35    13    65 1   
    36    14    15 1   
    37    14    16 1   
    38    15    46 1   
    39    15    47 1   
    40    15    48 1   
    41    16    23 1   
    42    16    49 1   
    43    16    50 1   
    44    17    28 2   
    45    17    30 1   
    46    18    51 1   
    47    18    52 1   
    48    19    29 1   
    49    19    53 1   
    50    19    54 1   
    51    20    55 1   
    52    20    56 1   
    53    21    22 ar  
    54    21    25 ar  
    55    21    64 1   
    56    22    57 1   
    57    23    58 1   
    58    23    59 1   
    59    24    25 ar  
    60    24    66 1   
    61    25    60 1   
    62    26    61 1   
    63    26    62 1   
    64    27    30 1   
    65    29    63 1   
    66    30    64 1   
    67    38    64 1   
    68    39    64 1   
    69    43    66 1   
    70    44    66 1   
    71    45    66 1   
@<TRIPOS>SUBSTRUCTURE
     1 FWA         1 TEMP              0 ****  ****    0 ROOT
