@<TRIPOS>MOLECULE
FWA
   66    71     1     0     0
SMALL
abcg2


@<TRIPOS>ATOM
      1 N1          -3.5920    -0.2720    -0.4150 nh         1 FWA      -0.757400
      2 N3           1.0450     2.1890     0.4860 nn         1 FWA      -0.711600
      3 C4          -4.7670    -0.0700    -2.5340 c6         1 FWA       0.162800
      4 C5          -2.5910    -0.9020     0.3640 ca         1 FWA       0.292000
      5 C6          -2.7600    -2.1690     0.9200 ca         1 FWA      -0.151000
      6 C7          -1.7520    -2.7550     1.6810 ca         1 FWA       0.130000
      7 C8          -0.5410    -2.1280     1.9320 ca         1 FWA      -0.110000
      8 C10         -1.3820    -0.2490     0.5960 ca         1 FWA       0.119400
      9 C13          1.5270     4.2190     0.6940 cy         1 FWA      -0.131000
     10 C15          2.6630     4.9680    -0.0090 cy         1 FWA       0.150800
     11 C20          4.5110    -0.3160    -1.0230 ca         1 FWA      -0.111800
     12 C21          5.4750     0.6050    -1.7090 c3         1 FWA      -0.040800
     13 C22          4.3330    -1.6200    -1.4540 ca         1 FWA       0.177000
     14 N           -6.0110     0.1700    -1.8300 n3         1 FWA      -0.719600
     15 C           -6.9390     0.9290    -2.6360 c3         1 FWA       0.153100
     16 C1          -5.7570     0.8160    -0.5580 c6         1 FWA       0.162800
     17 C11          0.2460     1.1140     0.6890 cc         1 FWA       0.628700
     18 C12          0.5410     3.4040    -0.1550 cy         1 FWA       0.212800
     19 C14          1.1280     5.5780     1.2640 cy         1 FWA       0.150800
     20 C16          1.7640     2.9550     1.5190 cy         1 FWA       0.212800
     21 C18          2.8570    -0.7640     0.6970 ca         1 FWA      -0.132300
     22 C19          3.7510     0.0930     0.0690 ca         1 FWA      -0.064500
     23 C2          -4.8360    -0.0320     0.2980 c6         1 FWA       0.182800
     24 C23          3.4620    -2.5230    -0.8640 ca         1 FWA      -0.111800
     25 C25          2.7280    -2.0670     0.2250 ca         1 FWA      -0.064500
     26 C3          -3.8310    -0.9180    -1.6960 c6         1 FWA       0.182800
     27 C9          -0.3900    -0.8720     1.3720 ca         1 FWA      -0.077200
     28 N2          -0.9560     0.9900     0.1890 nd         1 FWA      -0.603100
     29 N4           1.9290     6.2230     0.2130 n6         1 FWA      -0.840400
     30 N5           0.6520     0.0290     1.4230 na         1 FWA      -0.198600
     31 CL          -2.0200    -4.3410     2.3440 cl         1 FWA      -0.212000
     32 H1          -4.9820    -0.5910    -3.4700 h1         1 FWA       0.039200
     33 H2          -4.2610     0.8750    -2.7980 h1         1 FWA       0.039200
     34 H3          -3.6860    -2.7070     0.7570 ha         1 FWA       0.132000
     35 H4           0.2260    -2.6030     2.5270 ha         1 FWA       0.129000
     36 H5           3.6030     4.8930     0.5490 h1         1 FWA       0.052700
     37 H6           2.8570     4.7170    -1.0560 h1         1 FWA       0.052700
     38 H7           1.9340    -1.0520     2.6190 h1         1 FWA       0.062200
     39 H8           2.4490     0.5820     2.3290 h1         1 FWA       0.062200
     40 H9           6.4920     0.2110    -1.6930 hc         1 FWA       0.048033
     41 H10          5.2050     0.7620    -2.7540 hc         1 FWA       0.048033
     42 H11          5.4890     1.5780    -1.2210 hc         1 FWA       0.048033
     43 H12          4.2690    -4.4730    -1.3070 hc         1 FWA       0.048033
     44 H13          2.5810    -4.4710    -0.8110 hc         1 FWA       0.048033
     45 H14          3.0270    -3.9400    -2.4280 hc         1 FWA       0.048033
     46 H16         -7.1560     0.3950    -3.5620 h1         1 FWA       0.029367
     47 H17         -7.8790     1.0640    -2.0980 h1         1 FWA       0.029367
     48 H18         -6.5600     1.9270    -2.9060 h1         1 FWA       0.029367
     49 H19         -5.3070     1.8160    -0.6910 h1         1 FWA       0.039200
     50 H20         -6.7040     0.9580    -0.0330 h1         1 FWA       0.039200
     51 H21          0.6730     3.4290    -1.2380 h1         1 FWA       0.065950
     52 H22         -0.5060     3.6080     0.0840 h1         1 FWA       0.065950
     53 H23          0.0620     5.8240     1.2610 h1         1 FWA       0.052700
     54 H24          1.5150     5.7210     2.2790 h1         1 FWA       0.052700
     55 H25          1.2540     2.9620     2.4870 h1         1 FWA       0.065950
     56 H26          2.8060     2.6670     1.6690 h1         1 FWA       0.065950
     57 H27          3.8760     1.1060     0.4310 ha         1 FWA       0.117000
     58 H28         -5.3520    -0.9680     0.5670 h1         1 FWA       0.040450
     59 H29         -4.6170     0.4960     1.2270 h1         1 FWA       0.040450
     60 H30          2.0430    -2.7530     0.7100 ha         1 FWA       0.117000
     61 H31         -2.8810    -1.0320    -2.2210 h1         1 FWA       0.040450
     62 H32         -4.2630    -1.9250    -1.5760 h1         1 FWA       0.040450
     63 H33          2.4970     6.9980     0.5280 hn         1 FWA       0.410000
     64 C17          2.0070    -0.2870     1.8460 c3         1 FWA       0.140900
     65 F            5.0550    -2.0400    -2.5100 f          1 FWA      -0.180000
     66 C24          3.3290    -3.9240    -1.3810 c3         1 FWA      -0.040800
@<TRIPOS>BOND
     1     1     4 1   
     2     1    23 1   
     3     1    26 1   
     4     2    17 1   
     5     2    18 1   
     6     2    20 1   
     7     3    14 1   
     8     3    26 1   
     9     3    32 1   
    10     3    33 1   
    11     4     5 ar  
    12     4     8 ar  
    13     5     6 ar  
    14     5    34 1   
    15     6     7 ar  
    16     6    31 1   
    17     7    27 ar  
    18     7    35 1   
    19     8    27 ar  
    20     8    28 1   
    21     9    10 1   
    22     9    18 1   
    23     9    19 1   
    24     9    20 1   
    25    10    29 1   
    26    10    36 1   
    27    10    37 1   
    28    11    12 1   
    29    11    13 ar  
    30    11    22 ar  
    31    12    40 1   
    32    12    41 1   
    33    12    42 1   
    34    13    24 ar  
    35    13    65 1   
    36    14    15 1   
    37    14    16 1   
    38    15    46 1   
    39    15    47 1   
    40    15    48 1   
    41    16    23 1   
    42    16    49 1   
    43    16    50 1   
    44    17    28 2   
    45    17    30 1   
    46    18    51 1   
    47    18    52 1   
    48    19    29 1   
    49    19    53 1   
    50    19    54 1   
    51    20    55 1   
    52    20    56 1   
    53    21    22 ar  
    54    21    25 ar  
    55    21    64 1   
    56    22    57 1   
    57    23    58 1   
    58    23    59 1   
    59    24    25 ar  
    60    24    66 1   
    61    25    60 1   
    62    26    61 1   
    63    26    62 1   
    64    27    30 1   
    65    29    63 1   
    66    30    64 1   
    67    38    64 1   
    68    39    64 1   
    69    43    66 1   
    70    44    66 1   
    71    45    66 1   
@<TRIPOS>SUBSTRUCTURE
     1 FWA         1 TEMP              0 ****  ****    0 ROOT
