@<TRIPOS>MOLECULE
FWB
   27    27     1     0     0
SMALL
abcg2


@<TRIPOS>ATOM
      1 C4          -2.4110    -0.9360    -0.1150 c3         1 FWB       0.356300
      2 C5           1.0890     0.3630    -0.5720 ca         1 FWB      -0.021300
      3 C6          -0.3270     2.2030     0.1080 ca         1 FWB       0.135100
      4 C10          0.9190     1.7080    -0.2560 ca         1 FWB      -0.180000
      5 C13          3.3470    -0.3970     0.2790 c3         1 FWB       0.158500
      6 C1          -1.2560     0.0150    -0.1600 ca         1 FWB      -0.158300
      7 C11          2.4500    -0.1500    -0.9390 c3         1 FWB      -0.030100
      8 C14          4.7560    -0.7760    -0.1710 c3         1 FWB      -0.132100
      9 C2          -0.0080    -0.4850    -0.5190 ca         1 FWB      -0.084000
     10 C3          -1.4280     1.3510     0.1570 ca         1 FWB      -0.100000
     11 F7          -2.6050    -1.5380    -1.2980 f          1 FWB      -0.114333
     12 F8          -2.2090    -1.9160     0.7780 f          1 FWB      -0.114333
     13 F9          -3.5630    -0.3440     0.2130 f          1 FWB      -0.114333
     14 N15          2.7200    -1.3820     1.1490 n8         1 FWB      -0.987200
     15 O12         -0.5340     3.4960     0.4210 oh         1 FWB      -0.530100
     16 H1           1.7730     2.3780    -0.3000 ha         1 FWB       0.113000
     17 H2           3.4080     0.5390     0.8450 h1         1 FWB       0.061700
     18 H3           2.3590    -1.0840    -1.5040 hc         1 FWB       0.049700
     19 H4           2.9470     0.5650    -1.5990 hc         1 FWB       0.049700
     20 H5           5.2150     0.0110    -0.7720 hc         1 FWB       0.038367
     21 H6           5.4020    -0.9540     0.6900 hc         1 FWB       0.038367
     22 H7           4.7390    -1.6900    -0.7700 hc         1 FWB       0.038367
     23 H8           0.1210    -1.5320    -0.7650 ha         1 FWB       0.128000
     24 H9          -2.3930     1.7520     0.4390 ha         1 FWB       0.145000
     25 H10          2.6600    -2.2690     0.6600 hn         1 FWB       0.392500
     26 H11          3.3180    -1.5520     1.9490 hn         1 FWB       0.392500
     27 H13          0.2890     3.9940     0.3650 ho         1 FWB       0.466000
@<TRIPOS>BOND
     1     1     6 1   
     2     1    11 1   
     3     1    12 1   
     4     1    13 1   
     5     2     4 ar  
     6     2     7 1   
     7     2     9 ar  
     8     3     4 ar  
     9     3    10 ar  
    10     3    15 1   
    11     4    16 1   
    12     5     7 1   
    13     5     8 1   
    14     5    14 1   
    15     5    17 1   
    16     6     9 ar  
    17     6    10 ar  
    18     7    18 1   
    19     7    19 1   
    20     8    20 1   
    21     8    21 1   
    22     8    22 1   
    23     9    23 1   
    24    10    24 1   
    25    14    25 1   
    26    14    26 1   
    27    15    27 1   
@<TRIPOS>SUBSTRUCTURE
     1 FWB         1 TEMP              0 ****  ****    0 ROOT
