@<TRIPOS>MOLECULE
FWB
   27    27     1     0     0
SMALL
No Charge or Current Charge


@<TRIPOS>ATOM
      1 C4          -2.5600    -0.9300    -0.1700 c3         1 FWB       0.356300
      2 C5           1.0580     0.3590    -0.5440 ca         1 FWB      -0.021300
      3 C6          -0.3520     2.2090     0.1780 ca         1 FWB       0.135100
      4 C10          0.9080     1.7130    -0.1870 ca         1 FWB      -0.180000
      5 C13          3.3900    -0.3890     0.2520 c3         1 FWB       0.158500
      6 C1          -1.3440     0.0030    -0.1840 ca         1 FWB      -0.158300
      7 C11          2.4300    -0.1780    -0.9470 c3         1 FWB      -0.030100
      8 C14          4.8170    -0.7530    -0.2000 c3         1 FWB      -0.132100
      9 C2          -0.0680    -0.4880    -0.5400 ca         1 FWB      -0.084000
     10 C3          -1.4710     1.3620     0.1830 ca         1 FWB      -0.100000
     11 F7          -2.4830    -1.8870    -1.1240 f          1 FWB      -0.114333
     12 F8          -2.6790    -1.5650     1.0170 f          1 FWB      -0.114333
     13 F9          -3.7220    -0.2690    -0.3820 f          1 FWB      -0.114333
     14 N15          2.8940    -1.4320     1.1690 n8         1 FWB      -0.987200
     15 O12         -0.4950     3.5190     0.5310 oh         1 FWB      -0.530100
     16 H1           1.7740     2.3700    -0.1930 ha         1 FWB       0.113000
     17 H2           3.4470     0.5560     0.8140 h1         1 FWB       0.061700
     18 H3           2.3270    -1.1190    -1.5000 hc         1 FWB       0.049700
     19 H4           2.8950     0.5280    -1.6470 hc         1 FWB       0.049700
     20 H5           5.2310     0.0390    -0.8350 hc         1 FWB       0.038367
     21 H6           5.4830    -0.8720     0.6640 hc         1 FWB       0.038367
     22 H7           4.8240    -1.6880    -0.7740 hc         1 FWB       0.038367
     23 H8           0.0540    -1.5340    -0.8110 ha         1 FWB       0.128000
     24 H9          -2.4370     1.7670     0.4760 ha         1 FWB       0.145000
     25 H10          2.8940    -2.3320     0.6770 hn         1 FWB       0.392500
     26 H11          3.5800    -1.5700     1.9190 hn         1 FWB       0.392500
     27 H13          0.3820     3.9540     0.4700 ho         1 FWB       0.466000
@<TRIPOS>BOND
     1     1     6 1   
     2     1    11 1   
     3     1    12 1   
     4     1    13 1   
     5     2     4 ar  
     6     2     7 1   
     7     2     9 ar  
     8     3     4 ar  
     9     3    10 ar  
    10     3    15 1   
    11     4    16 1   
    12     5     7 1   
    13     5     8 1   
    14     5    14 1   
    15     5    17 1   
    16     6     9 ar  
    17     6    10 ar  
    18     7    18 1   
    19     7    19 1   
    20     8    20 1   
    21     8    21 1   
    22     8    22 1   
    23     9    23 1   
    24    10    24 1   
    25    14    25 1   
    26    14    26 1   
    27    15    27 1   
@<TRIPOS>SUBSTRUCTURE
     1 FWB         1 TEMP              0 ****  ****    0 ROOT
