@<TRIPOS>MOLECULE
FWD
   22    22     1     0     0
SMALL
abcg2


@<TRIPOS>ATOM
      1 N1           0.2340    -0.0110    -0.6090 n          1 FWD      -0.270000
      2 C2           0.7790    -1.2700    -0.6050 c          1 FWD       0.627000
      3 O2           0.1820    -2.2690    -0.9440 o          1 FWD      -0.549000
      4 N3           2.0980    -1.3210    -0.2060 ns         1 FWD      -0.472500
      5 C4           2.9170    -0.2870     0.1960 c          1 FWD       0.584200
      6 O4           4.0720    -0.4630     0.5290 o          1 FWD      -0.547000
      7 C5           2.2360     0.9850     0.1640 cc         1 FWD      -0.093700
      8 F5           2.9390     2.0640     0.5230 f          1 FWD      -0.158500
      9 C6           0.9580     1.0770    -0.2180 cd         1 FWD      -0.009400
     10 C7          -1.1940     0.1630    -0.8580 c3         1 FWD       0.112000
     11 C8          -1.9900     0.2660     0.4460 c3         1 FWD      -0.009500
     12 N8          -1.6690    -0.8490     1.3110 n8         1 FWD      -1.005200
     13 C9          -3.4860     0.4590     0.0810 c          1 FWD       0.697000
     14 O91         -4.2930    -0.3960     0.4870 o          1 FWD      -0.721000
     15 O92         -3.7410     1.4690    -0.6080 o          1 FWD      -0.721000
     16 H3           2.5100    -2.2450    -0.2080 hn         1 FWD       0.330500
     17 H6           0.4440     2.0290    -0.2450 h4         1 FWD       0.225000
     18 H71         -1.3240     1.0630    -1.4550 h1         1 FWD       0.075200
     19 H72         -1.5340    -0.6800    -1.4570 h1         1 FWD       0.075200
     20 H8          -1.6640     1.1810     0.9550 h1         1 FWD       0.038700
     21 H81         -2.0800    -0.6830     2.2200 hn         1 FWD       0.395500
     22 H82         -2.1350    -1.6790     0.9630 hn         1 FWD       0.395500
@<TRIPOS>BOND
     1     1     2 1   
     2     1     9 1   
     3     1    10 1   
     4     2     3 2   
     5     2     4 1   
     6     4     5 1   
     7     4    16 1   
     8     5     6 2   
     9     5     7 1   
    10     7     8 1   
    11     7     9 2   
    12     9    17 1   
    13    10    11 1   
    14    10    18 1   
    15    10    19 1   
    16    11    12 1   
    17    11    13 1   
    18    11    20 1   
    19    12    21 1   
    20    12    22 1   
    21    13    14 1   
    22    13    15 1   
@<TRIPOS>SUBSTRUCTURE
     1 FWD         1 TEMP              0 ****  ****    0 ROOT
