@<TRIPOS>MOLECULE
FWD
   22    22     1     0     0
SMALL
No Charge or Current Charge


@<TRIPOS>ATOM
      1 N1           0.2720    -0.0540    -0.5150 n          1 FWD      -0.270000
      2 C2           0.9020    -1.3220    -0.5530 c          1 FWD       0.627000
      3 O2           0.3260    -2.3590    -0.8430 o          1 FWD      -0.549000
      4 N3           2.2320    -1.3390    -0.2560 ns         1 FWD      -0.472500
      5 C4           3.0380    -0.2910     0.0710 c          1 FWD       0.584200
      6 O4           4.2230    -0.4560     0.3160 o          1 FWD      -0.547000
      7 C5           2.3380     1.0130     0.0900 cc         1 FWD      -0.093700
      8 F5           3.0470     2.1140     0.4000 f          1 FWD      -0.158500
      9 C6           0.9950     1.0980    -0.1990 cd         1 FWD      -0.009400
     10 C7          -1.1830     0.0450    -0.8040 c3         1 FWD       0.112000
     11 C8          -2.0630     0.2930     0.4530 c3         1 FWD      -0.009500
     12 N8          -1.8730    -0.7800     1.5080 n8         1 FWD      -1.005200
     13 C9          -3.5480     0.5530    -0.0140 c          1 FWD       0.697000
     14 O91         -4.2130    -0.4030    -0.3910 o          1 FWD      -0.721000
     15 O92         -4.0040     1.6800     0.1100 o          1 FWD      -0.721000
     16 H3           2.6750    -2.2440    -0.2840 hn         1 FWD       0.330500
     17 H6           0.4210     2.0200    -0.1980 h4         1 FWD       0.225000
     18 H71         -1.3350     0.8760    -1.5060 h1         1 FWD       0.075200
     19 H72         -1.5340    -0.8590    -1.3170 h1         1 FWD       0.075200
     20 H8          -1.7180     1.2320     0.9050 h1         1 FWD       0.038700
     21 H81         -2.4540    -0.5570     2.3260 hn         1 FWD       0.395500
     22 H82         -2.2860    -1.6560     1.1640 hn         1 FWD       0.395500
@<TRIPOS>BOND
     1     1     2 1   
     2     1     9 1   
     3     1    10 1   
     4     2     3 2   
     5     2     4 1   
     6     4     5 1   
     7     4    16 1   
     8     5     6 2   
     9     5     7 1   
    10     7     8 1   
    11     7     9 2   
    12     9    17 1   
    13    10    11 1   
    14    10    18 1   
    15    10    19 1   
    16    11    12 1   
    17    11    13 1   
    18    11    20 1   
    19    12    21 1   
    20    12    22 1   
    21    13    14 1   
    22    13    15 1   
@<TRIPOS>SUBSTRUCTURE
     1 FWD         1 TEMP              0 ****  ****    0 ROOT
