@<TRIPOS>MOLECULE
FWE
   99   104     1     0     0
SMALL
No Charge or Current Charge


@<TRIPOS>ATOM
      1 C13          8.1690    -2.0210    -1.9110 ca         1 FWE      -0.041000
      2 C15          6.1510    -3.4370    -1.3510 c          1 FWE       0.627700
      3 C17          4.1980    -4.7700    -0.6970 c5         1 FWE       0.098900
      4 C21          2.8970    -3.9670    -1.0660 c          1 FWE       0.546000
      5 C24          0.3060    -2.4810    -0.2100 ca         1 FWE      -0.123000
      6 C26         -2.0840    -2.9610     0.0600 ca         1 FWE      -0.151600
      7 C02         15.9770     5.4100     1.4210 ca         1 FWE       0.152100
      8 C03         16.3830     4.4670     0.4640 ca         1 FWE      -0.181500
      9 C04         15.4440     3.5790    -0.0910 ca         1 FWE      -0.049500
     10 C05         14.0960     3.6250     0.3150 ca         1 FWE      -0.112800
     11 C06         13.1120     2.6890    -0.2980 ce         1 FWE      -0.072200
     12 C08         11.9740     1.8810     1.8230 c3         1 FWE      -0.058900
     13 C11          9.2730    -0.5860    -0.2690 ca         1 FWE       0.006000
     14 C12          9.1800    -1.1040    -1.5760 ca         1 FWE      -0.166000
     15 C14          7.2260    -2.4480    -0.9500 ca         1 FWE      -0.179600
     16 C18          3.8920    -5.3670     0.6580 c2         1 FWE      -0.437200
     17 C19          2.6420    -5.0550     0.9320 c2         1 FWE       0.274600
     18 C23          0.6240    -3.8330     0.0060 ca         1 FWE      -0.020000
     19 C25         -1.0300    -2.0440    -0.1820 ca         1 FWE      -0.059000
     20 C29         -4.9590    -0.3890    -0.1650 ca         1 FWE       0.026000
     21 C30         -6.2470    -0.9230     0.0210 ca         1 FWE      -0.188000
     22 C31         -7.3790    -0.1030    -0.0340 ca         1 FWE      -0.014000
     23 C32         -7.2620     1.2850    -0.2790 ca         1 FWE      -0.280600
     24 C33         -8.5040     2.1650    -0.3360 c          1 FWE       0.628700
     25 C35        -11.0730     1.9780    -0.1120 ca         1 FWE      -0.025000
     26 C36        -11.4360     3.3220    -0.3140 ca         1 FWE      -0.202000
     27 C37        -12.7800     3.7130    -0.2810 ca         1 FWE      -0.020000
     28 C38        -13.8050     2.7740    -0.0440 ca         1 FWE      -0.274600
     29 C39        -15.2460     3.2490    -0.0170 c          1 FWE       0.725600
     30 C42        -13.4500     1.4170     0.1610 ca         1 FWE       0.226100
     31 C44        -12.0760     1.0110     0.1270 ca         1 FWE      -0.065900
     32 C46        -12.4480    -1.4420     0.5730 c3         1 FWE       0.143900
     33 C48         -5.9650     1.8320    -0.4680 ca         1 FWE       0.229100
     34 C50         -4.8050     0.9930    -0.4120 ca         1 FWE      -0.041900
     35 C54         -1.7540    -4.3200     0.2680 ca         1 FWE      -0.059000
     36 C55         -0.4170    -4.7500     0.2400 ca         1 FWE      -0.123000
     37 C58          7.3270    -1.9300     0.3630 ca         1 FWE      -0.041000
     38 C59          8.3410    -1.0140     0.6920 ca         1 FWE      -0.166000
     39 C61         13.6930     4.5850     1.2660 ca         1 FWE      -0.049500
     40 C62         14.6340     5.4710     1.8190 ca         1 FWE      -0.181500
     41 N10         10.2690     0.3390     0.1480 ns         1 FWE      -0.145000
     42 N16          5.2620    -3.8120    -0.3620 ns         1 FWE      -0.490900
     43 N20          2.0330    -5.3850     2.1160 nv         1 FWE      -0.938000
     44 N22          1.9930    -4.2760    -0.0250 n          1 FWE      -0.187600
     45 N28         -3.7760    -1.1800    -0.1190 ns         1 FWE      -0.138000
     46 N34         -9.7210     1.5250    -0.1360 ns         1 FWE      -0.104000
     47 O40        -16.1250     2.4220     0.1890 o          1 FWE      -0.691000
     48 O41        -15.4760     4.4330    -0.2020 o          1 FWE      -0.691000
     49 O43        -14.4560     0.5270     0.3880 oh         1 FWE      -0.620100
     50 O45        -11.6170    -0.2950     0.3160 os         1 FWE      -0.362100
     51 O47         -8.4020     3.3710    -0.5480 o          1 FWE      -0.647100
     52 O49         -5.8620     3.1710    -0.7030 oh         1 FWE      -0.548100
     53 O51         -3.4870     1.4280    -0.5840 os         1 FWE      -0.356100
     54 O53         -4.4340    -3.3460     0.3080 o          1 FWE      -0.573100
     55 O57          6.0730    -3.8790    -2.4910 o          1 FWE      -0.595100
     56 H1           8.1240    -2.4020    -2.9300 ha         1 FWE       0.125000
     57 H2           4.4360    -5.5090    -1.4760 h1         1 FWE       0.115700
     58 H3           1.0970    -1.7570    -0.3910 ha         1 FWE       0.127000
     59 H4          17.4210     4.4150     0.1450 ha         1 FWE       0.123500
     60 H5          15.7650     2.8510    -0.8330 ha         1 FWE       0.118000
     61 H6          13.2180     2.6260    -1.3840 ha         1 FWE       0.201000
     62 H7          11.1230     2.4930     2.1460 hc         1 FWE       0.046367
     63 H8          11.8150     0.8610     2.1920 hc         1 FWE       0.046367
     64 H9          12.8630     2.2470     2.3470 hc         1 FWE       0.046367
     65 H10          9.8840    -0.8170    -2.3500 ha         1 FWE       0.130500
     66 H11          4.5660    -5.9410     1.2950 ha         1 FWE       0.212000
     67 H12         -1.2230    -0.9870    -0.3510 ha         1 FWE       0.134000
     68 H13         -6.3990    -1.9800     0.2110 ha         1 FWE       0.150000
     69 H14         -8.3460    -0.5790     0.1180 ha         1 FWE       0.122000
     70 H15        -10.6910     4.0880    -0.5000 ha         1 FWE       0.128000
     71 H16        -13.0160     4.7640    -0.4420 ha         1 FWE       0.127000
     72 H17        -13.1450    -1.6170    -0.2560 h1         1 FWE       0.027033
     73 H18        -11.8260    -2.3400     0.6790 h1         1 FWE       0.027033
     74 H19        -13.0140    -1.3170     1.5050 h1         1 FWE       0.027033
     75 H20         -1.9900     2.8390    -0.9360 h1         1 FWE       0.036033
     76 H21         -3.5130     3.1500    -1.7860 h1         1 FWE       0.036033
     77 H22         -3.3820     3.4500    -0.0250 h1         1 FWE       0.036033
     78 H23         -2.5370    -5.0540     0.4490 ha         1 FWE       0.134000
     79 H24         -0.1950    -5.8050     0.3830 ha         1 FWE       0.127000
     80 H25          6.6310    -2.2250     1.1440 ha         1 FWE       0.125000
     81 H26          8.3970    -0.6300     1.7090 ha         1 FWE       0.130500
     82 H27         12.6510     4.6510     1.5690 ha         1 FWE       0.118000
     83 H28         14.3190     6.2070     2.5530 ha         1 FWE       0.123500
     84 H29         10.2650     0.5160     1.1430 hn         1 FWE       0.154000
     85 H30          5.3860    -3.4170     0.5600 hn         1 FWE       0.318500
     86 H31          2.3910    -6.2000     2.6060 hn         1 FWE       0.470000
     87 H32          1.0310    -5.2300     2.1770 hn         1 FWE       0.470000
     88 H33         -2.9390    -0.6360    -0.2770 hn         1 FWE       0.170000
     89 H34         -9.6430     0.5320     0.0270 hn         1 FWE       0.166000
     90 H35         17.7600     6.0890     1.5690 ho         1 FWE       0.467000
     91 H37        -15.2880     1.0820     0.3550 ho         1 FWE       0.552000
     92 H38         -6.7970     3.5150    -0.6920 ho         1 FWE       0.529000
     93 C09         11.2480     1.0450    -0.5440 c          1 FWE       0.614300
     94 O56          2.6700    -3.2580    -2.0410 o          1 FWE      -0.481000
     95 C27         -3.5410    -2.5320     0.0970 c          1 FWE       0.621700
     96 C07         12.1420     1.9250     0.3000 cf         1 FWE      -0.199400
     97 O60         11.3810     0.9850    -1.7620 o          1 FWE      -0.582100
     98 O01         16.8800     6.2740     1.9630 oh         1 FWE      -0.529100
     99 C52         -3.0820     2.7850    -0.8450 c3         1 FWE       0.141900
@<TRIPOS>BOND
     1     1    14 ar  
     2     1    15 ar  
     3     1    56 1   
     4     2    15 1   
     5     2    42 1   
     6     2    55 2   
     7     3     4 1   
     8     3    16 1   
     9     3    42 1   
    10     3    57 1   
    11     4    44 1   
    12     4    94 2   
    13     5    18 ar  
    14     5    19 ar  
    15     5    58 1   
    16     6    19 ar  
    17     6    35 ar  
    18     6    95 1   
    19     7     8 ar  
    20     7    40 ar  
    21     7    98 1   
    22     8     9 ar  
    23     8    59 1   
    24     9    10 ar  
    25     9    60 1   
    26    10    11 1   
    27    10    39 ar  
    28    11    61 1   
    29    11    96 2   
    30    12    62 1   
    31    12    63 1   
    32    12    64 1   
    33    12    96 1   
    34    13    14 ar  
    35    13    38 ar  
    36    13    41 1   
    37    14    65 1   
    38    15    37 ar  
    39    16    17 2   
    40    16    66 1   
    41    17    43 1   
    42    17    44 1   
    43    18    36 ar  
    44    18    44 1   
    45    19    67 1   
    46    20    21 ar  
    47    20    34 ar  
    48    20    45 1   
    49    21    22 ar  
    50    21    68 1   
    51    22    23 ar  
    52    22    69 1   
    53    23    24 1   
    54    23    33 ar  
    55    24    46 1   
    56    24    51 2   
    57    25    26 ar  
    58    25    31 ar  
    59    25    46 1   
    60    26    27 ar  
    61    26    70 1   
    62    27    28 ar  
    63    27    71 1   
    64    28    29 1   
    65    28    30 ar  
    66    29    47 1   
    67    29    48 1   
    68    30    31 ar  
    69    30    49 1   
    70    31    50 1   
    71    32    50 1   
    72    32    72 1   
    73    32    73 1   
    74    32    74 1   
    75    33    34 ar  
    76    33    52 1   
    77    34    53 1   
    78    35    36 ar  
    79    35    78 1   
    80    36    79 1   
    81    37    38 ar  
    82    37    80 1   
    83    38    81 1   
    84    39    40 ar  
    85    39    82 1   
    86    40    83 1   
    87    41    84 1   
    88    41    93 1   
    89    42    85 1   
    90    43    86 1   
    91    43    87 1   
    92    45    88 1   
    93    45    95 1   
    94    46    89 1   
    95    49    91 1   
    96    52    92 1   
    97    53    99 1   
    98    54    95 2   
    99    75    99 1   
   100    76    99 1   
   101    77    99 1   
   102    90    98 1   
   103    93    96 1   
   104    93    97 2   
@<TRIPOS>SUBSTRUCTURE
     1 FWE         1 TEMP              0 ****  ****    0 ROOT
