@<TRIPOS>MOLECULE
FWE
   99   104     1     0     0
SMALL
bcc


@<TRIPOS>ATOM
      1 C13          8.4360    -2.5020    -1.3110 ca         1 FWE      -0.059000
      2 C15          6.1650    -3.3830    -0.8600 c          1 FWE       0.694700
      3 C17          4.1380    -4.4120     0.0770 c5         1 FWE       0.098900
      4 C21          2.8410    -3.7420    -0.3890 c          1 FWE       0.688500
      5 C24          0.2510    -2.2070     0.4350 ca         1 FWE      -0.141000
      6 C26         -2.0990    -2.7420     0.3030 ca         1 FWE      -0.151600
      7 C02         16.1390     5.3410    -0.1620 ca         1 FWE       0.152100
      8 C03         16.5530     4.1170    -0.6840 ca         1 FWE      -0.199500
      9 C04         15.6300     3.1080    -0.8910 ca         1 FWE      -0.067500
     10 C05         14.2810     3.2670    -0.5620 ca         1 FWE      -0.112800
     11 C06         13.3650     2.1560    -0.8030 ce         1 FWE      -0.022200
     12 C08         11.8230     2.4560     1.1700 c3         1 FWE      -0.058900
     13 C11          9.2930    -0.4750    -0.3400 ca         1 FWE       0.098600
     14 C12          9.4690    -1.5930    -1.1590 ca         1 FWE      -0.184000
     15 C14          7.2180    -2.3470    -0.6560 ca         1 FWE      -0.179600
     16 C18          3.7670    -4.9630     1.4140 c2         1 FWE      -0.387200
     17 C19          2.4730    -4.6970     1.6540 c2         1 FWE       0.274600
     18 C23          0.5570    -3.5610     0.4910 ca         1 FWE       0.072600
     19 C25         -1.0700    -1.8030     0.3360 ca         1 FWE      -0.077000
     20 C29         -5.0900    -0.4720     0.5050 ca         1 FWE       0.118600
     21 C30         -6.2100    -0.9620    -0.1790 ca         1 FWE      -0.206000
     22 C31         -7.3690    -0.2200    -0.1910 ca         1 FWE      -0.032000
     23 C32         -7.4790     1.0180     0.4460 ca         1 FWE      -0.280600
     24 C33         -8.7110     1.8350     0.4510 c          1 FWE       0.695700
     25 C35        -11.1070     1.7990    -0.2010 ca         1 FWE       0.067600
     26 C36        -11.5460     3.0200     0.3190 ca         1 FWE      -0.220000
     27 C37        -12.8440     3.4250     0.0690 ca         1 FWE      -0.038000
     28 C38        -13.7350     2.6580    -0.6710 ca         1 FWE      -0.274600
     29 C39        -15.1470     3.1100    -0.9220 c          1 FWE       0.936200
     30 C42        -13.2990     1.4240    -1.1850 ca         1 FWE       0.226100
     31 C44        -11.9860     1.0080    -0.9460 ca         1 FWE      -0.065900
     32 C46        -11.1520    -0.1810    -2.7870 c3         1 FWE       0.120700
     33 C48         -6.3390     1.5290     1.0990 ca         1 FWE       0.229100
     34 C50         -5.1670     0.7690     1.1390 ca         1 FWE      -0.041900
     35 C54         -1.7800    -4.0970     0.3450 ca         1 FWE      -0.077000
     36 C55         -0.4610    -4.5070     0.4320 ca         1 FWE      -0.141000
     37 C58          7.0440    -1.2190     0.1460 ca         1 FWE      -0.059000
     38 C59          8.0600    -0.2990     0.2980 ca         1 FWE      -0.184000
     39 C61         13.8820     4.5120    -0.0610 ca         1 FWE      -0.067500
     40 C62         14.7910     5.5350     0.1360 ca         1 FWE      -0.199500
     41 N10         10.2620     0.4910    -0.0890 ns         1 FWE      -0.471100
     42 N16          5.2280    -3.4700     0.1050 ns         1 FWE      -0.557900
     43 N20          1.7140    -4.9170     2.7600 nv         1 FWE      -0.827600
     44 N22          1.8990    -3.9820     0.5780 n          1 FWE      -0.347200
     45 N28         -3.8610    -1.1150     0.5680 ns         1 FWE      -0.464100
     46 N34         -9.8330     1.2540    -0.0150 ns         1 FWE      -0.430100
     47 O40        -15.8620     2.3120    -1.6120 o          1 FWE      -0.796300
     48 O41        -15.5300     4.1900    -0.4660 o          1 FWE      -0.796300
     49 O43        -14.1070     0.6460    -1.8930 oh         1 FWE      -0.581100
     50 O45        -11.5520    -0.1980    -1.4190 os         1 FWE      -0.338900
     51 O47         -8.6920     2.9950     0.8770 o          1 FWE      -0.647100
     52 O49         -6.3140     2.7180     1.6920 oh         1 FWE      -0.509100
     53 O51         -4.0620     1.2560     1.7680 os         1 FWE      -0.332900
     54 O53         -4.3560    -3.1800    -0.2430 o          1 FWE      -0.573100
     55 O57          6.1830    -4.1240    -1.8330 o          1 FWE      -0.595100
     56 H1           8.5940    -3.3610    -1.9500 ha         1 FWE       0.143000
     57 H2           4.3880    -5.1920    -0.6500 h1         1 FWE       0.115700
     58 H3           1.0380    -1.4670     0.4760 ha         1 FWE       0.145000
     59 H4          17.5950     3.9540    -0.9370 ha         1 FWE       0.141500
     60 H5          15.9700     2.1680    -1.3090 ha         1 FWE       0.136000
     61 H6          13.6260     1.5330    -1.6530 ha         1 FWE       0.151000
     62 H7          10.9800     3.1380     1.0260 hc         1 FWE       0.046367
     63 H8          11.5220     1.7110     1.9090 hc         1 FWE       0.046367
     64 H9          12.6270     3.0330     1.6220 hc         1 FWE       0.046367
     65 H10         10.3990    -1.7650    -1.6740 ha         1 FWE       0.148500
     66 H11          4.4290    -5.5130     2.0620 ha         1 FWE       0.162000
     67 H12         -1.2670    -0.7420     0.2620 ha         1 FWE       0.152000
     68 H13         -6.1800    -1.9040    -0.6980 ha         1 FWE       0.168000
     69 H14         -8.1980    -0.6380    -0.7470 ha         1 FWE       0.140000
     70 H15        -10.8940     3.6400     0.9100 ha         1 FWE       0.146000
     71 H16        -13.1820     4.3720     0.4710 ha         1 FWE       0.145000
     72 H17        -10.3470     0.5380    -2.9600 h1         1 FWE       0.027033
     73 H18        -10.7900    -1.1790    -3.0260 h1         1 FWE       0.027033
     74 H19        -11.9860     0.0600    -3.4470 h1         1 FWE       0.027033
     75 H20         -3.1030     1.4420     3.5480 h1         1 FWE       0.036033
     76 H21         -4.8520     1.7130     3.6510 h1         1 FWE       0.036033
     77 H22         -4.2160     0.0620     3.4780 h1         1 FWE       0.036033
     78 H23         -2.5630    -4.8400     0.3010 ha         1 FWE       0.152000
     79 H24         -0.2260    -5.5630     0.4340 ha         1 FWE       0.145000
     80 H25          6.1040    -1.0220     0.6470 ha         1 FWE       0.143000
     81 H26          7.8960     0.5720     0.9210 ha         1 FWE       0.148500
     82 H27         12.8390     4.7050     0.1480 ha         1 FWE       0.136000
     83 H28         14.4560     6.4930     0.5130 ha         1 FWE       0.141500
     84 H29          9.9800     1.1930     0.5770 hn         1 FWE       0.320500
     85 H30          5.2940    -2.8900     0.9270 hn         1 FWE       0.318500
     86 H31          2.1190    -5.5530     3.4290 hn         1 FWE       0.414800
     87 H32          0.7250    -5.0740     2.6380 hn         1 FWE       0.414800
     88 H33         -3.1330    -0.5630     0.9990 hn         1 FWE       0.336500
     89 H34         -9.7760     0.2850    -0.2890 hn         1 FWE       0.332500
     90 H35         17.8830     6.1160    -0.1870 ho         1 FWE       0.428000
     91 H37        -14.9860     1.1910    -1.9090 ho         1 FWE       0.513000
     92 H38         -7.1960     3.1320     1.5240 ho         1 FWE       0.490000
     93 C09         11.4970     0.6440    -0.6470 c          1 FWE       0.681300
     94 O56          2.6650    -3.1130    -1.4040 o          1 FWE      -0.556500
     95 C27         -3.5430    -2.3780     0.1740 c          1 FWE       0.688700
     96 C07         12.2730     1.8040    -0.1060 cf         1 FWE      -0.199400
     97 O60         11.9220    -0.0930    -1.5210 o          1 FWE      -0.582100
     98 O01         16.9840     6.3630     0.0560 oh         1 FWE      -0.490100
     99 C52         -4.0730     1.1060     3.1880 c3         1 FWE       0.118700
@<TRIPOS>BOND
     1     1    14 ar  
     2     1    15 ar  
     3     1    56 1   
     4     2    15 1   
     5     2    42 1   
     6     2    55 2   
     7     3     4 1   
     8     3    16 1   
     9     3    42 1   
    10     3    57 1   
    11     4    44 1   
    12     4    94 2   
    13     5    18 ar  
    14     5    19 ar  
    15     5    58 1   
    16     6    19 ar  
    17     6    35 ar  
    18     6    95 1   
    19     7     8 ar  
    20     7    40 ar  
    21     7    98 1   
    22     8     9 ar  
    23     8    59 1   
    24     9    10 ar  
    25     9    60 1   
    26    10    11 1   
    27    10    39 ar  
    28    11    61 1   
    29    11    96 2   
    30    12    62 1   
    31    12    63 1   
    32    12    64 1   
    33    12    96 1   
    34    13    14 ar  
    35    13    38 ar  
    36    13    41 1   
    37    14    65 1   
    38    15    37 ar  
    39    16    17 2   
    40    16    66 1   
    41    17    43 1   
    42    17    44 1   
    43    18    36 ar  
    44    18    44 1   
    45    19    67 1   
    46    20    21 ar  
    47    20    34 ar  
    48    20    45 1   
    49    21    22 ar  
    50    21    68 1   
    51    22    23 ar  
    52    22    69 1   
    53    23    24 1   
    54    23    33 ar  
    55    24    46 1   
    56    24    51 2   
    57    25    26 ar  
    58    25    31 ar  
    59    25    46 1   
    60    26    27 ar  
    61    26    70 1   
    62    27    28 ar  
    63    27    71 1   
    64    28    29 1   
    65    28    30 ar  
    66    29    47 1   
    67    29    48 1   
    68    30    31 ar  
    69    30    49 1   
    70    31    50 1   
    71    32    50 1   
    72    32    72 1   
    73    32    73 1   
    74    32    74 1   
    75    33    34 ar  
    76    33    52 1   
    77    34    53 1   
    78    35    36 ar  
    79    35    78 1   
    80    36    79 1   
    81    37    38 ar  
    82    37    80 1   
    83    38    81 1   
    84    39    40 ar  
    85    39    82 1   
    86    40    83 1   
    87    41    84 1   
    88    41    93 1   
    89    42    85 1   
    90    43    86 1   
    91    43    87 1   
    92    45    88 1   
    93    45    95 1   
    94    46    89 1   
    95    49    91 1   
    96    52    92 1   
    97    53    99 1   
    98    54    95 2   
    99    75    99 1   
   100    76    99 1   
   101    77    99 1   
   102    90    98 1   
   103    93    96 1   
   104    93    97 2   
@<TRIPOS>SUBSTRUCTURE
     1 FWE         1 TEMP              0 ****  ****    0 ROOT
