@<TRIPOS>MOLECULE
FWF
   68    69     1     0     0
SMALL
abcg2


@<TRIPOS>ATOM
      1 O3          -7.7390    -0.5660    -1.7440 o          1 FWF      -0.526750
      2 S2          -7.9910    -0.8580    -0.3380 s6         1 FWF       1.176100
      3 O4          -9.3370    -0.6820     0.1930 o          1 FWF      -0.526750
      4 C20         -7.4790    -2.5630    -0.0250 c3         1 FWF      -0.306700
      5 N1          -7.0180     0.1310     0.5440 n7         1 FWF      -0.879800
      6 C15         -5.5950     0.2300     0.2440 c3         1 FWF       0.207800
      7 C14         -5.0070     1.5090     0.8490 c3         1 FWF      -0.012400
      8 C16         -5.7100     2.7630     0.3380 c3         1 FWF      -0.080100
      9 C1          -3.5190     1.5200     0.5880 ca         1 FWF      -0.084300
     10 C6          -3.0010     1.8320    -0.6680 ca         1 FWF      -0.105000
     11 C5          -1.6350     1.8230    -0.9000 ca         1 FWF      -0.098500
     12 C4          -0.7320     1.4930     0.1120 cp         1 FWF      -0.031000
     13 C3          -1.2530     1.1690     1.3650 ca         1 FWF      -0.098500
     14 C2          -2.6200     1.1850     1.5950 ca         1 FWF      -0.105000
     15 C10          0.7240     1.4900    -0.1360 cp         1 FWF      -0.031000
     16 C9           1.6290     1.8160     0.8760 ca         1 FWF      -0.098500
     17 C8           2.9940     1.8190     0.6430 ca         1 FWF      -0.105000
     18 C11          1.2440     1.1650    -1.3890 ca         1 FWF      -0.098500
     19 C12          2.6110     1.1750    -1.6200 ca         1 FWF      -0.105000
     20 C7           3.5110     1.5060    -0.6120 ca         1 FWF      -0.084300
     21 C13          4.9990     1.4900    -0.8730 c3         1 FWF      -0.012400
     22 C17          5.7020     2.7470    -0.3700 c3         1 FWF      -0.080100
     23 C18          5.5870     0.2150    -0.2590 c3         1 FWF       0.207800
     24 N2           7.0100     0.1150    -0.5570 n7         1 FWF      -0.879800
     25 S1           7.9850    -0.8640     0.3350 s6         1 FWF       1.176100
     26 O1           9.3310    -0.6840    -0.1930 o          1 FWF      -0.526750
     27 O2           7.7260    -0.5650     1.7370 o          1 FWF      -0.526750
     28 C19          7.4820    -2.5740     0.0290 c3         1 FWF      -0.306700
     29 C21          7.6020    -2.9010    -1.4500 c3         1 FWF      -0.075100
     30 C22          8.3220    -3.4950     0.9040 c3         1 FWF      -0.075100
     31 C23         -7.5910    -2.8820     1.4570 c3         1 FWF      -0.075100
     32 C24         -8.3160    -3.4940    -0.8920 c3         1 FWF      -0.075100
     33 H1          -6.4330    -2.6090    -0.3420 h1         1 FWF       0.087700
     34 H2          -7.2430     0.1200     1.5330 hn         1 FWF       0.483500
     35 H3          -5.0410    -0.6360     0.6230 h1         1 FWF       0.053700
     36 H4          -5.4720     0.2520    -0.8400 h1         1 FWF       0.053700
     37 H5          -5.1460     1.4570     1.9340 hc         1 FWF       0.049700
     38 H6          -5.6510     2.8470    -0.7490 hc         1 FWF       0.043200
     39 H7          -6.7650     2.7540     0.6060 hc         1 FWF       0.043200
     40 H8          -5.2610     3.6580     0.7680 hc         1 FWF       0.043200
     41 H9          -3.6650     2.0950    -1.4820 ha         1 FWF       0.114750
     42 H10         -1.2720     2.1010    -1.8810 ha         1 FWF       0.115750
     43 H11         -0.5890     0.8850     2.1720 ha         1 FWF       0.115750
     44 H12         -2.9930     0.9240     2.5790 ha         1 FWF       0.114750
     45 H13          1.2660     2.0950     1.8570 ha         1 FWF       0.115750
     46 H14          3.6590     2.0790     1.4580 ha         1 FWF       0.114750
     47 H15          0.5780     0.8850    -2.1970 ha         1 FWF       0.115750
     48 H16          2.9830     0.9130    -2.6040 ha         1 FWF       0.114750
     49 H17          5.1380     1.4300    -1.9580 hc         1 FWF       0.049700
     50 H18          5.2540     3.6390    -0.8070 hc         1 FWF       0.043200
     51 H19          5.6430     2.8390     0.7160 hc         1 FWF       0.043200
     52 H20          6.7580     2.7360    -0.6380 hc         1 FWF       0.043200
     53 H21          5.4630     0.2440     0.8240 h1         1 FWF       0.053700
     54 H22          5.0340    -0.6540    -0.6330 h1         1 FWF       0.053700
     55 H23          7.2360     0.0970    -1.5460 hn         1 FWF       0.483500
     56 H24          6.4350    -2.6230     0.3420 h1         1 FWF       0.087700
     57 H25          7.2850    -3.9300    -1.6100 hc         1 FWF       0.050533
     58 H26          6.9660    -2.2690    -2.0710 hc         1 FWF       0.050533
     59 H27          8.6310    -2.8100    -1.7970 hc         1 FWF       0.050533
     60 H28          8.1900    -3.2850     1.9640 hc         1 FWF       0.050533
     61 H29          8.0110    -4.5250     0.7300 hc         1 FWF       0.050533
     62 H30          9.3810    -3.4210     0.6600 hc         1 FWF       0.050533
     63 H31         -8.6190    -2.7950     1.8070 hc         1 FWF       0.050533
     64 H32         -7.2680    -3.9090     1.6220 hc         1 FWF       0.050533
     65 H33         -6.9560    -2.2440     2.0710 hc         1 FWF       0.050533
     66 H34         -8.1880    -3.2910    -1.9530 hc         1 FWF       0.050533
     67 H35         -8.0010    -4.5210    -0.7110 hc         1 FWF       0.050533
     68 H36         -9.3750    -3.4230    -0.6450 hc         1 FWF       0.050533
@<TRIPOS>BOND
     1     1     2 2   
     2     2     3 2   
     3     2     4 1   
     4     2     5 1   
     5     4    31 1   
     6     4    32 1   
     7     4    33 1   
     8     5     6 1   
     9     5    34 1   
    10     6     7 1   
    11     6    35 1   
    12     6    36 1   
    13     7     8 1   
    14     7     9 1   
    15     7    37 1   
    16     8    38 1   
    17     8    39 1   
    18     8    40 1   
    19     9    10 ar  
    20     9    14 ar  
    21    10    11 ar  
    22    10    41 1   
    23    11    12 ar  
    24    11    42 1   
    25    12    13 ar  
    26    12    15 1   
    27    13    14 ar  
    28    13    43 1   
    29    14    44 1   
    30    15    16 ar  
    31    15    18 ar  
    32    16    17 ar  
    33    16    45 1   
    34    17    20 ar  
    35    17    46 1   
    36    18    19 ar  
    37    18    47 1   
    38    19    20 ar  
    39    19    48 1   
    40    20    21 1   
    41    21    22 1   
    42    21    23 1   
    43    21    49 1   
    44    22    50 1   
    45    22    51 1   
    46    22    52 1   
    47    23    24 1   
    48    23    53 1   
    49    23    54 1   
    50    24    25 1   
    51    24    55 1   
    52    25    26 2   
    53    25    27 2   
    54    25    28 1   
    55    28    29 1   
    56    28    30 1   
    57    28    56 1   
    58    29    57 1   
    59    29    58 1   
    60    29    59 1   
    61    30    60 1   
    62    30    61 1   
    63    30    62 1   
    64    31    63 1   
    65    31    64 1   
    66    31    65 1   
    67    32    66 1   
    68    32    67 1   
    69    32    68 1   
@<TRIPOS>SUBSTRUCTURE
     1 FWF         1 TEMP              0 ****  ****    0 ROOT
