@<TRIPOS>MOLECULE
FWF
   68    69     1     0     0
SMALL
No Charge or Current Charge


@<TRIPOS>ATOM
      1 O3          -7.9650    -0.5510    -1.9050 o          1 FWF      -0.526750
      2 S2          -8.1350    -0.8620    -0.4830 s6         1 FWF       1.176100
      3 O4          -9.4630    -0.7790     0.1280 o          1 FWF      -0.526750
      4 C20         -7.3740    -2.4790    -0.1070 c3         1 FWF      -0.306700
      5 N1          -7.1900     0.2270     0.3510 n7         1 FWF      -0.879800
      6 C15         -5.7770     0.3910    -0.0410 c3         1 FWF       0.207800
      7 C14         -5.0610     1.4280     0.8630 c3         1 FWF      -0.012400
      8 C16         -5.6530     2.8520     0.7240 c3         1 FWF      -0.080100
      9 C1          -3.5540     1.4330     0.5970 ca         1 FWF      -0.084300
     10 C6          -3.0430     1.7910    -0.6660 ca         1 FWF      -0.105000
     11 C5          -1.6580     1.7890    -0.9030 ca         1 FWF      -0.098500
     12 C4          -0.7390     1.4300     0.1150 cp         1 FWF      -0.031000
     13 C3          -1.2680     1.0730     1.3800 ca         1 FWF      -0.098500
     14 C2          -2.6530     1.0740     1.6180 ca         1 FWF      -0.105000
     15 C10          0.7380     1.4290    -0.1380 cp         1 FWF      -0.031000
     16 C9           1.6560     1.7930     0.8770 ca         1 FWF      -0.098500
     17 C8           3.0420     1.7930     0.6410 ca         1 FWF      -0.105000
     18 C11          1.2660     1.0630    -1.4000 ca         1 FWF      -0.098500
     19 C12          2.6510     1.0600    -1.6380 ca         1 FWF      -0.105000
     20 C7           3.5520     1.4260    -0.6200 ca         1 FWF      -0.084300
     21 C13          5.0600     1.4170    -0.8860 c3         1 FWF      -0.012400
     22 C17          5.6520     2.8420    -0.7560 c3         1 FWF      -0.080100
     23 C18          5.7750     0.3860     0.0260 c3         1 FWF       0.207800
     24 N2           7.1870     0.2180    -0.3660 n7         1 FWF      -0.879800
     25 S1           8.1310    -0.8670     0.4760 s6         1 FWF       1.176100
     26 O1           9.4590    -0.7890    -0.1360 o          1 FWF      -0.526750
     27 O2           7.9610    -0.5450     1.8950 o          1 FWF      -0.526750
     28 C19          7.3690    -2.4850     0.1100 c3         1 FWF      -0.306700
     29 C21          7.2730    -2.7840    -1.4120 c3         1 FWF      -0.075100
     30 C22          8.0990    -3.6240     0.8680 c3         1 FWF      -0.075100
     31 C23         -7.2790    -2.7680     1.4170 c3         1 FWF      -0.075100
     32 C24         -8.1050    -3.6220    -0.8570 c3         1 FWF      -0.075100
     33 H1          -6.3590    -2.4130    -0.5130 h1         1 FWF       0.087700
     34 H2          -7.2310    -0.1610     1.2900 hn         1 FWF       0.483500
     35 H3          -5.2390    -0.5630     0.0380 h1         1 FWF       0.053700
     36 H4          -5.7040     0.7220    -1.0860 h1         1 FWF       0.053700
     37 H5          -5.2290     1.1160     1.9020 hc         1 FWF       0.049700
     38 H6          -5.5880     3.2080    -0.3110 hc         1 FWF       0.043200
     39 H7          -6.7070     2.8710     1.0250 hc         1 FWF       0.043200
     40 H8          -5.1080     3.5570     1.3630 hc         1 FWF       0.043200
     41 H9          -3.7170     2.0760    -1.4710 ha         1 FWF       0.114750
     42 H10         -1.2930     2.0830    -1.8830 ha         1 FWF       0.115750
     43 H11         -0.5990     0.7780     2.1840 ha         1 FWF       0.115750
     44 H12         -3.0230     0.7900     2.6010 ha         1 FWF       0.114750
     45 H13          1.2920     2.0950     1.8560 ha         1 FWF       0.115750
     46 H14          3.7160     2.0830     1.4440 ha         1 FWF       0.114750
     47 H15          0.5960     0.7630    -2.2030 ha         1 FWF       0.115750
     48 H16          3.0210     0.7700    -2.6190 ha         1 FWF       0.114750
     49 H17          5.2270     1.0990    -1.9220 hc         1 FWF       0.049700
     50 H18          5.1080     3.5430    -1.4000 hc         1 FWF       0.043200
     51 H19          5.5880     3.2050     0.2770 hc         1 FWF       0.043200
     52 H20          6.7070     2.8580    -1.0570 hc         1 FWF       0.043200
     53 H21          5.7020     0.7240     1.0690 h1         1 FWF       0.053700
     54 H22          5.2350    -0.5680    -0.0470 h1         1 FWF       0.053700
     55 H23          7.2270    -0.1760    -1.3020 hn         1 FWF       0.483500
     56 H24          6.3530    -2.4150     0.5160 h1         1 FWF       0.087700
     57 H25          6.8240    -3.7710    -1.5800 hc         1 FWF       0.050533
     58 H26          6.6440    -2.0510    -1.9300 hc         1 FWF       0.050533
     59 H27          8.2660    -2.7840    -1.8790 hc         1 FWF       0.050533
     60 H28          8.1100    -3.4340     1.9490 hc         1 FWF       0.050533
     61 H29          7.5930    -4.5840     0.7050 hc         1 FWF       0.050533
     62 H30          9.1360    -3.7240     0.5260 hc         1 FWF       0.050533
     63 H31         -8.2720    -2.7630     1.8840 hc         1 FWF       0.050533
     64 H32         -6.8310    -3.7540     1.5920 hc         1 FWF       0.050533
     65 H33         -6.6500    -2.0320     1.9310 hc         1 FWF       0.050533
     66 H34         -8.1170    -3.4390    -1.9390 hc         1 FWF       0.050533
     67 H35         -7.6010    -4.5810    -0.6870 hc         1 FWF       0.050533
     68 H36         -9.1430    -3.7190    -0.5140 hc         1 FWF       0.050533
@<TRIPOS>BOND
     1     1     2 2   
     2     2     3 2   
     3     2     4 1   
     4     2     5 1   
     5     4    31 1   
     6     4    32 1   
     7     4    33 1   
     8     5     6 1   
     9     5    34 1   
    10     6     7 1   
    11     6    35 1   
    12     6    36 1   
    13     7     8 1   
    14     7     9 1   
    15     7    37 1   
    16     8    38 1   
    17     8    39 1   
    18     8    40 1   
    19     9    10 ar  
    20     9    14 ar  
    21    10    11 ar  
    22    10    41 1   
    23    11    12 ar  
    24    11    42 1   
    25    12    13 ar  
    26    12    15 1   
    27    13    14 ar  
    28    13    43 1   
    29    14    44 1   
    30    15    16 ar  
    31    15    18 ar  
    32    16    17 ar  
    33    16    45 1   
    34    17    20 ar  
    35    17    46 1   
    36    18    19 ar  
    37    18    47 1   
    38    19    20 ar  
    39    19    48 1   
    40    20    21 1   
    41    21    22 1   
    42    21    23 1   
    43    21    49 1   
    44    22    50 1   
    45    22    51 1   
    46    22    52 1   
    47    23    24 1   
    48    23    53 1   
    49    23    54 1   
    50    24    25 1   
    51    24    55 1   
    52    25    26 2   
    53    25    27 2   
    54    25    28 1   
    55    28    29 1   
    56    28    30 1   
    57    28    56 1   
    58    29    57 1   
    59    29    58 1   
    60    29    59 1   
    61    30    60 1   
    62    30    61 1   
    63    30    62 1   
    64    31    63 1   
    65    31    64 1   
    66    31    65 1   
    67    32    66 1   
    68    32    67 1   
    69    32    68 1   
@<TRIPOS>SUBSTRUCTURE
     1 FWF         1 TEMP              0 ****  ****    0 ROOT
