@<TRIPOS>MOLECULE
FWG
   55    58     1     0     0
SMALL
abcg2


@<TRIPOS>ATOM
      1 C15          0.9530     2.6420     0.0250 c6         1 FWG       0.098000
      2 C20         -3.1960    -1.0140     0.0490 ca         1 FWG       0.072000
      3 C21         -2.6580    -1.9480    -0.8670 ca         1 FWG      -0.174000
      4 C22         -2.7130    -3.2840    -0.5810 ca         1 FWG       0.344900
      5 C24         -3.7800    -2.9630     1.3900 ca         1 FWG       0.371900
      6 C26         -4.3700    -0.7260     2.1960 ca         1 FWG      -0.022000
      7 C28         -3.7970     1.1920     0.8790 ca         1 FWG       0.017000
      8 C02          2.8790     1.2980     0.7010 c          1 FWG       0.609100
      9 C03          3.7560     0.0780     0.4520 c3         1 FWG      -0.129700
     10 C04          4.6620     0.3480    -0.7690 c3         1 FWG      -0.065900
     11 C05          5.0260    -0.8850    -1.5970 c3         1 FWG      -0.072400
     12 C06          5.3600    -2.1520    -0.8090 c3         1 FWG      -0.070900
     13 C07          6.1460    -1.9340     0.4850 c3         1 FWG      -0.070900
     14 C08          5.2590    -1.6120     1.6860 c3         1 FWG      -0.072400
     15 C09          4.5830    -0.2440     1.7000 c3         1 FWG      -0.065900
     16 N10          1.8150     1.4870    -0.1230 n          1 FWG      -0.419800
     17 C11          1.4680     0.6790    -1.2720 c6         1 FWG       0.098000
     18 C12          0.0190     0.2270    -1.2000 c6         1 FWG       0.176300
     19 N13         -0.8360     1.4030    -1.0580 n3         1 FWG      -0.721500
     20 C14         -0.5020     2.2150     0.1130 c6         1 FWG       0.176300
     21 S16         -2.4390     1.2700    -1.4380 sy         1 FWG       1.152600
     22 O17         -2.9720     2.6220    -1.4460 o          1 FWG      -0.532000
     23 O18         -2.5370     0.4730    -2.6480 o          1 FWG      -0.532000
     24 C19         -3.2150     0.4060    -0.0840 ca         1 FWG      -0.295500
     25 N23         -3.2630    -3.8020     0.5370 nb         1 FWG      -0.663000
     26 C25         -3.7860    -1.5580     1.2190 ca         1 FWG      -0.126000
     27 C27         -4.3800     0.6280     2.0280 ca         1 FWG      -0.143000
     28 H1           1.2180     3.1870     0.9260 h1         1 FWG       0.065950
     29 H2           1.0840     3.3140    -0.8290 h1         1 FWG       0.065950
     30 H4          -2.2990    -3.9990    -1.2820 h4         1 FWG       0.024100
     31 H5          -4.2310    -3.3760     2.2880 h4         1 FWG       0.021100
     32 H6          -4.8090    -1.1770     3.0760 ha         1 FWG       0.122000
     33 H7          -3.8220     2.2670     0.7660 ha         1 FWG       0.142000
     34 H8           3.1060    -0.7800     0.2480 hc         1 FWG       0.060700
     35 H9           4.2010     1.0730    -1.4450 hc         1 FWG       0.050200
     36 H10          5.5690     0.8390    -0.4080 hc         1 FWG       0.050200
     37 H11          4.2070    -1.1090    -2.2870 hc         1 FWG       0.036700
     38 H12          5.8770    -0.6180    -2.2280 hc         1 FWG       0.036700
     39 H13          4.4410    -2.6930    -0.5640 hc         1 FWG       0.038450
     40 H14          5.9200    -2.8180    -1.4700 hc         1 FWG       0.038450
     41 H15          6.6960    -2.8500     0.7160 hc         1 FWG       0.038450
     42 H16          6.9060    -1.1570     0.3500 hc         1 FWG       0.038450
     43 H17          4.4940    -2.3920     1.7650 hc         1 FWG       0.036700
     44 H18          5.8570    -1.6880     2.5990 hc         1 FWG       0.036700
     45 H19          5.3400     0.5330     1.8330 hc         1 FWG       0.050200
     46 H20          3.9430    -0.2020     2.5840 hc         1 FWG       0.050200
     47 H21          1.6200     1.2590    -2.1880 h1         1 FWG       0.065950
     48 H22          2.0950    -0.2040    -1.3410 h1         1 FWG       0.065950
     49 H23         -0.2180    -0.2960    -2.1230 h1         1 FWG       0.062450
     50 H24         -0.1090    -0.4650    -0.3600 h1         1 FWG       0.062450
     51 H25         -0.6710     1.6550     1.0410 h1         1 FWG       0.062450
     52 H26         -1.1230     3.1080     0.1350 h1         1 FWG       0.062450
     53 H27         -4.8290     1.2770     2.7660 ha         1 FWG       0.127000
     54 H3          -2.2130    -1.6410    -1.7980 ha         1 FWG       0.148000
     55 O01          3.1340     2.0910     1.5960 o          1 FWG      -0.599100
@<TRIPOS>BOND
     1     1    16 1   
     2     1    20 1   
     3     1    28 1   
     4     1    29 1   
     5     2     3 ar  
     6     2    24 ar  
     7     2    26 ar  
     8     3     4 ar  
     9     3    54 1   
    10     4    25 ar  
    11     4    30 1   
    12     5    25 ar  
    13     5    26 ar  
    14     5    31 1   
    15     6    26 ar  
    16     6    27 ar  
    17     6    32 1   
    18     7    24 ar  
    19     7    27 ar  
    20     7    33 1   
    21     8     9 1   
    22     8    16 1   
    23     8    55 2   
    24     9    10 1   
    25     9    15 1   
    26     9    34 1   
    27    10    11 1   
    28    10    35 1   
    29    10    36 1   
    30    11    12 1   
    31    11    37 1   
    32    11    38 1   
    33    12    13 1   
    34    12    39 1   
    35    12    40 1   
    36    13    14 1   
    37    13    41 1   
    38    13    42 1   
    39    14    15 1   
    40    14    43 1   
    41    14    44 1   
    42    15    45 1   
    43    15    46 1   
    44    16    17 1   
    45    17    18 1   
    46    17    47 1   
    47    17    48 1   
    48    18    19 1   
    49    18    49 1   
    50    18    50 1   
    51    19    20 1   
    52    19    21 1   
    53    20    51 1   
    54    20    52 1   
    55    21    22 2   
    56    21    23 2   
    57    21    24 1   
    58    27    53 1   
@<TRIPOS>SUBSTRUCTURE
     1 FWG         1 TEMP              0 ****  ****    0 ROOT
