@<TRIPOS>MOLECULE
FWG
   55    58     1     0     0
SMALL
No Charge or Current Charge


@<TRIPOS>ATOM
      1 C15          0.8100     2.4380     0.3930 c6         1 FWG       0.098000
      2 C20         -3.3730    -0.9420    -0.0110 ca         1 FWG       0.072000
      3 C21         -2.8460    -1.8390    -0.9690 ca         1 FWG      -0.174000
      4 C22         -2.9250    -3.2240    -0.7580 ca         1 FWG       0.344900
      5 C24         -3.9930    -2.9350     1.2620 ca         1 FWG       0.371900
      6 C26         -4.5090    -0.7390     2.1560 ca         1 FWG      -0.022000
      7 C28         -3.9070     1.2590     0.9180 ca         1 FWG       0.017000
      8 C02          3.0700     1.3700     0.5230 c          1 FWG       0.609100
      9 C03          3.9860     0.1260     0.3760 c3         1 FWG      -0.129700
     10 C04          4.8280     0.2440    -0.9260 c3         1 FWG      -0.065900
     11 C05          5.2090    -1.0900    -1.6110 c3         1 FWG      -0.072400
     12 C06          5.6240    -2.2640    -0.6920 c3         1 FWG      -0.070900
     13 C07          6.4430    -1.8870     0.5630 c3         1 FWG      -0.070900
     14 C08          5.5710    -1.4460     1.7630 c3         1 FWG      -0.072400
     15 C09          4.8830    -0.0690     1.6330 c3         1 FWG      -0.065900
     16 N10          1.7150     1.2790     0.1240 n          1 FWG      -0.419800
     17 C11          1.3240     0.4990    -1.0960 c6         1 FWG       0.098000
     18 C12         -0.2020     0.2630    -1.2480 c6         1 FWG       0.176300
     19 N13         -0.9800     1.5200    -1.1200 n3         1 FWG      -0.721500
     20 C14         -0.6990     2.1390     0.1990 c6         1 FWG       0.176300
     21 S16         -2.6380     1.4150    -1.5180 sy         1 FWG       1.152600
     22 O17         -3.1320     2.7960    -1.4890 o          1 FWG      -0.532000
     23 O18         -2.7190     0.6420    -2.7610 o          1 FWG      -0.532000
     24 C19         -3.3460     0.4820    -0.1240 ca         1 FWG      -0.295500
     25 N23         -3.4880    -3.7760     0.3350 nb         1 FWG      -0.663000
     26 C25         -3.9600    -1.5320     1.1360 ca         1 FWG      -0.126000
     27 C27         -4.4810     0.6550     2.0440 ca         1 FWG      -0.143000
     28 H1           0.9630     2.7930     1.4210 h1         1 FWG       0.065950
     29 H2           1.0900     3.2610    -0.2800 h1         1 FWG       0.065950
     30 H4          -2.5190    -3.9180    -1.4940 h4         1 FWG       0.024100
     31 H5          -4.4410    -3.4040     2.1370 h4         1 FWG       0.021100
     32 H6          -4.9580    -1.1990     3.0350 ha         1 FWG       0.122000
     33 H7          -3.9020     2.3470     0.8670 ha         1 FWG       0.142000
     34 H8           3.3400    -0.7510     0.2710 hc         1 FWG       0.060700
     35 H9           4.2760     0.8410    -1.6630 hc         1 FWG       0.050200
     36 H10          5.7410     0.8160    -0.7160 hc         1 FWG       0.050200
     37 H11          4.3650    -1.4240    -2.2270 hc         1 FWG       0.036700
     38 H12          6.0290    -0.8860    -2.3110 hc         1 FWG       0.036700
     39 H13          4.7260    -2.8130    -0.3830 hc         1 FWG       0.038450
     40 H14          6.2100    -2.9700    -1.2940 hc         1 FWG       0.038450
     41 H15          7.0120    -2.7720     0.8730 hc         1 FWG       0.038450
     42 H16          7.1820    -1.1140     0.3210 hc         1 FWG       0.038450
     43 H17          4.8070    -2.2110     1.9530 hc         1 FWG       0.036700
     44 H18          6.2050    -1.4240     2.6590 hc         1 FWG       0.036700
     45 H19          5.6480     0.7170     1.6630 hc         1 FWG       0.050200
     46 H20          4.2650     0.0770     2.5280 hc         1 FWG       0.050200
     47 H21          1.6770     1.0480    -1.9800 h1         1 FWG       0.065950
     48 H22          1.8120    -0.4820    -1.1150 h1         1 FWG       0.065950
     49 H23         -0.3700    -0.2050    -2.2280 h1         1 FWG       0.062450
     50 H24         -0.5170    -0.4600    -0.4820 h1         1 FWG       0.062450
     51 H25         -1.0280     1.4760     1.0130 h1         1 FWG       0.062450
     52 H26         -1.2480     3.0850     0.3130 h1         1 FWG       0.062450
     53 H27         -4.9050     1.2710     2.8340 ha         1 FWG       0.127000
     54 H3          -2.3670    -1.5150    -1.8800 ha         1 FWG       0.148000
     55 O01          3.5060     2.4130     0.9970 o          1 FWG      -0.599100
@<TRIPOS>BOND
     1     1    16 1   
     2     1    20 1   
     3     1    28 1   
     4     1    29 1   
     5     2     3 ar  
     6     2    24 ar  
     7     2    26 ar  
     8     3     4 ar  
     9     3    54 1   
    10     4    25 ar  
    11     4    30 1   
    12     5    25 ar  
    13     5    26 ar  
    14     5    31 1   
    15     6    26 ar  
    16     6    27 ar  
    17     6    32 1   
    18     7    24 ar  
    19     7    27 ar  
    20     7    33 1   
    21     8     9 1   
    22     8    16 1   
    23     8    55 2   
    24     9    10 1   
    25     9    15 1   
    26     9    34 1   
    27    10    11 1   
    28    10    35 1   
    29    10    36 1   
    30    11    12 1   
    31    11    37 1   
    32    11    38 1   
    33    12    13 1   
    34    12    39 1   
    35    12    40 1   
    36    13    14 1   
    37    13    41 1   
    38    13    42 1   
    39    14    15 1   
    40    14    43 1   
    41    14    44 1   
    42    15    45 1   
    43    15    46 1   
    44    16    17 1   
    45    17    18 1   
    46    17    47 1   
    47    17    48 1   
    48    18    19 1   
    49    18    49 1   
    50    18    50 1   
    51    19    20 1   
    52    19    21 1   
    53    20    51 1   
    54    20    52 1   
    55    21    22 2   
    56    21    23 2   
    57    21    24 1   
    58    27    53 1   
@<TRIPOS>SUBSTRUCTURE
     1 FWG         1 TEMP              0 ****  ****    0 ROOT
