@<TRIPOS>MOLECULE
FWH
   47    51     1     0     0
SMALL
No Charge or Current Charge


@<TRIPOS>ATOM
      1 C10          1.1430    -0.2400     1.2310 ca         1 FWH      -0.041000
      2 C13          1.2380     1.4990    -1.0320 ca         1 FWH      -0.144000
      3 C11         -0.0100     0.4920     0.8470 ca         1 FWH      -0.092800
      4 C14          2.3500     0.7600    -0.6200 ca         1 FWH       0.008800
      5 C16         -1.2890     0.3480     1.6110 ce         1 FWH      -0.010400
      6 C19          3.6460    -0.6980     0.6260 cp         1 FWH      -0.085000
      7 C20          5.5050    -2.0170     1.4460 ca         1 FWH      -0.145000
      8 C18          4.4690    -0.2090    -0.3870 ca         1 FWH      -0.001200
      9 C3          -4.5470    -0.8880    -1.9700 ca         1 FWH      -0.088000
     10 N2           3.6560     0.6650    -1.1280 na         1 FWH      -0.095600
     11 C5          -2.9470    -0.3230    -0.2210 ca         1 FWH      -0.073000
     12 C1          -2.5400    -2.2270    -1.7020 ca         1 FWH      -0.113000
     13 N1          -4.9890     0.9560    -0.5330 nb         1 FWH      -0.670000
     14 C4          -4.1720    -0.0600    -0.8950 ca         1 FWH       0.272000
     15 C2          -3.7400    -1.9630    -2.3760 ca         1 FWH      -0.102000
     16 C12          0.0500     1.3550    -0.2840 ca         1 FWH      -0.061000
     17 C15          2.3240    -0.0920     0.4810 cp         1 FWH      -0.090000
     18 C21          4.1550    -1.6160     1.5650 ca         1 FWH      -0.052000
     19 C22          5.8100    -0.5850    -0.5280 ca         1 FWH      -0.141000
     20 C23          6.3260    -1.5060     0.4100 ca         1 FWH      -0.081000
     21 C24         -1.3120     0.1190     2.9420 c2         1 FWH      -0.296000
     22 C25          4.1290     1.4180    -2.3010 c3         1 FWH       0.069900
     23 C6          -2.1450    -1.4150    -0.6270 ca         1 FWH      -0.082000
     24 C7          -4.6290     1.7430     0.5020 ca         1 FWH       0.369300
     25 C8          -3.4390     1.5540     1.2180 ca         1 FWH      -0.163000
     26 C9          -2.5680     0.5140     0.8570 ca         1 FWH      -0.000800
     27 H6           1.1230    -0.9190     2.0790 ha         1 FWH       0.117000
     28 H8           1.2810     2.1610    -1.8940 ha         1 FWH       0.118000
     29 H12          5.9190    -2.7250     2.1610 ha         1 FWH       0.113000
     30 H3          -5.4800    -0.6930    -2.4930 ha         1 FWH       0.129000
     31 H1          -1.9160    -3.0640    -2.0090 ha         1 FWH       0.115000
     32 H2          -4.0480    -2.5920    -3.2090 ha         1 FWH       0.115000
     33 H7          -0.8280     1.9220    -0.5840 ha         1 FWH       0.119000
     34 H11         -6.3940     2.4850     1.5080 hc         1 FWH       0.052033
     35 H10         -5.0800     3.6680     1.3950 hc         1 FWH       0.052033
     36 H9          -6.0530     3.2930    -0.0330 hc         1 FWH       0.052033
     37 H13          3.5250    -2.0050     2.3610 ha         1 FWH       0.115000
     38 H14          6.4340    -0.1870    -1.3250 ha         1 FWH       0.116000
     39 H15          7.3630    -1.8260     0.3360 ha         1 FWH       0.111000
     40 H16         -0.4030     0.0250     3.5340 ha         1 FWH       0.170500
     41 H17         -2.2520     0.0290     3.4860 ha         1 FWH       0.170500
     42 H19          4.5310     2.3860    -1.9760 h1         1 FWH       0.047367
     43 H18          4.9140     0.8540    -2.8180 h1         1 FWH       0.047367
     44 H20          3.3000     1.5850    -2.9990 h1         1 FWH       0.047367
     45 H4          -1.2160    -1.6500    -0.1140 ha         1 FWH       0.125000
     46 H5          -3.1890     2.2180     2.0400 ha         1 FWH       0.124000
     47 C17         -5.5920     2.8590     0.8620 c3         1 FWH      -0.148400
@<TRIPOS>BOND
     1     1     3 ar  
     2     1    17 ar  
     3     1    27 1   
     4     2     4 ar  
     5     2    16 ar  
     6     2    28 1   
     7     3     5 1   
     8     3    16 ar  
     9     4    10 1   
    10     4    17 ar  
    11     5    21 2   
    12     5    26 1   
    13     6     8 ar  
    14     6    17 1   
    15     6    18 ar  
    16     7    18 ar  
    17     7    20 ar  
    18     7    29 1   
    19     8    10 1   
    20     8    19 ar  
    21     9    14 ar  
    22     9    15 ar  
    23     9    30 1   
    24    10    22 1   
    25    11    14 ar  
    26    11    23 ar  
    27    11    26 ar  
    28    12    15 ar  
    29    12    23 ar  
    30    12    31 1   
    31    13    14 ar  
    32    13    24 ar  
    33    15    32 1   
    34    16    33 1   
    35    18    37 1   
    36    19    20 ar  
    37    19    38 1   
    38    20    39 1   
    39    21    40 1   
    40    21    41 1   
    41    22    42 1   
    42    22    43 1   
    43    22    44 1   
    44    23    45 1   
    45    24    25 ar  
    46    24    47 1   
    47    25    26 ar  
    48    25    46 1   
    49    34    47 1   
    50    35    47 1   
    51    36    47 1   
@<TRIPOS>SUBSTRUCTURE
     1 FWH         1 TEMP              0 ****  ****    0 ROOT
