@<TRIPOS>MOLECULE
FWH
   47    51     1     0     0
SMALL
abcg2


@<TRIPOS>ATOM
      1 C10          1.1060    -0.2840     1.2440 ca         1 FWH      -0.041000
      2 C13          1.2470     1.4900    -0.9460 ca         1 FWH      -0.144000
      3 C11         -0.0150     0.4510     0.8700 ca         1 FWH      -0.092800
      4 C14          2.3590     0.7490    -0.5570 ca         1 FWH       0.008800
      5 C16         -1.2870     0.3340     1.6120 ce         1 FWH      -0.010400
      6 C19          3.5960    -0.7350     0.6560 cp         1 FWH      -0.085000
      7 C20          5.4800    -2.0310     1.3550 ca         1 FWH      -0.145000
      8 C18          4.3820    -0.1760    -0.3730 ca         1 FWH      -0.001200
      9 C3          -4.5130    -0.9160    -1.9620 ca         1 FWH      -0.088000
     10 N2           3.6170     0.7040    -1.1010 na         1 FWH      -0.095600
     11 C5          -2.9060    -0.3430    -0.2190 ca         1 FWH      -0.073000
     12 C1          -2.5550    -2.2780    -1.6240 ca         1 FWH      -0.113000
     13 N1          -4.9200     0.9760    -0.5870 nb         1 FWH      -0.670000
     14 C4          -4.1140    -0.0690    -0.9050 ca         1 FWH       0.272000
     15 C2          -3.7500    -1.9970    -2.3150 ca         1 FWH      -0.102000
     16 C12          0.0760     1.3230    -0.2310 ca         1 FWH      -0.061000
     17 C15          2.2920    -0.1360     0.5390 cp         1 FWH      -0.090000
     18 C21          4.1540    -1.6710     1.5230 ca         1 FWH      -0.052000
     19 C22          5.7180    -0.5290    -0.5420 ca         1 FWH      -0.141000
     20 C23          6.2490    -1.4620     0.3330 ca         1 FWH      -0.081000
     21 C24         -1.3440     0.0860     2.9230 c2         1 FWH      -0.296000
     22 C25          4.0930     1.5070    -2.1970 c3         1 FWH       0.069900
     23 C6          -2.1430    -1.4690    -0.5990 ca         1 FWH      -0.082000
     24 C7          -4.5790     1.7570     0.4030 ca         1 FWH       0.369300
     25 C8          -3.3870     1.5610     1.1480 ca         1 FWH      -0.163000
     26 C9          -2.5430     0.5290     0.8480 ca         1 FWH      -0.000800
     27 H6           1.0460    -0.9850     2.0690 ha         1 FWH       0.117000
     28 H8           1.2820     2.1800    -1.7790 ha         1 FWH       0.118000
     29 H12          5.9300    -2.7570     2.0190 ha         1 FWH       0.113000
     30 H3          -5.4390    -0.6930    -2.4760 ha         1 FWH       0.129000
     31 H1          -1.9640    -3.1390    -1.9070 ha         1 FWH       0.115000
     32 H2          -4.0670    -2.6430    -3.1230 ha         1 FWH       0.115000
     33 H7          -0.7940     1.8950    -0.5280 ha         1 FWH       0.119000
     34 H11         -5.8880     2.7750     1.7580 hc         1 FWH       0.052033
     35 H10         -4.9300     3.8440     0.7510 hc         1 FWH       0.052033
     36 H9          -6.3050     2.9740     0.0510 hc         1 FWH       0.052033
     37 H13          3.5600    -2.1090     2.3150 ha         1 FWH       0.115000
     38 H14          6.3280    -0.0930    -1.3220 ha         1 FWH       0.116000
     39 H15          7.2850    -1.7560     0.2230 ha         1 FWH       0.111000
     40 H16         -0.4490    -0.0200     3.5220 ha         1 FWH       0.170500
     41 H17         -2.2900    -0.0280     3.4350 ha         1 FWH       0.170500
     42 H19          4.5840     2.4180    -1.8510 h1         1 FWH       0.047367
     43 H18          4.7990     0.9360    -2.7970 h1         1 FWH       0.047367
     44 H20          3.2620     1.7830    -2.8420 h1         1 FWH       0.047367
     45 H4          -1.2260    -1.7010    -0.0730 ha         1 FWH       0.125000
     46 H5          -3.1450     2.2520     1.9460 ha         1 FWH       0.124000
     47 C17         -5.4790     2.9010     0.7540 c3         1 FWH      -0.148400
@<TRIPOS>BOND
     1     1     3 ar  
     2     1    17 ar  
     3     1    27 1   
     4     2     4 ar  
     5     2    16 ar  
     6     2    28 1   
     7     3     5 1   
     8     3    16 ar  
     9     4    10 1   
    10     4    17 ar  
    11     5    21 2   
    12     5    26 1   
    13     6     8 ar  
    14     6    17 1   
    15     6    18 ar  
    16     7    18 ar  
    17     7    20 ar  
    18     7    29 1   
    19     8    10 1   
    20     8    19 ar  
    21     9    14 ar  
    22     9    15 ar  
    23     9    30 1   
    24    10    22 1   
    25    11    14 ar  
    26    11    23 ar  
    27    11    26 ar  
    28    12    15 ar  
    29    12    23 ar  
    30    12    31 1   
    31    13    14 ar  
    32    13    24 ar  
    33    15    32 1   
    34    16    33 1   
    35    18    37 1   
    36    19    20 ar  
    37    19    38 1   
    38    20    39 1   
    39    21    40 1   
    40    21    41 1   
    41    22    42 1   
    42    22    43 1   
    43    22    44 1   
    44    23    45 1   
    45    24    25 ar  
    46    24    47 1   
    47    25    26 ar  
    48    25    46 1   
    49    34    47 1   
    50    35    47 1   
    51    36    47 1   
@<TRIPOS>SUBSTRUCTURE
     1 FWH         1 TEMP              0 ****  ****    0 ROOT
