@<TRIPOS>MOLECULE
FWJ
   49    52     1     0     0
SMALL
bcc


@<TRIPOS>ATOM
      1 C10          0.8240    -0.6550    -1.4140 c6         1 FWJ       0.089000
      2 N12         -0.9100     0.5360    -0.1920 n3         1 FWJ      -0.800500
      3 C13         -0.0670     0.6260     1.0000 c6         1 FWJ       0.202800
      4 C20         -5.5710     1.1140     0.0040 ca         1 FWJ      -0.240300
      5 C21         -6.9360     1.1320     0.0730 ca         1 FWJ       0.413200
      6 C24         -5.6980    -1.2870     0.1290 ca         1 FWJ      -0.184300
      7 C26         -3.7560    -2.7090     0.1000 ca         1 FWJ      -0.163000
      8 C28          6.1440    -0.9480     0.6620 ca         1 FWJ      -0.084500
      9 C02          7.9620     0.4800     0.1010 ca         1 FWJ       0.140900
     10 C03          7.1220     1.5750     0.0450 ca         1 FWJ      -0.167500
     11 C04          5.7720     1.3870     0.3040 ca         1 FWJ      -0.084500
     12 C05          5.2650     0.1290     0.6150 ca         1 FWJ      -0.088300
     13 C06          3.8040    -0.0610     0.8890 c3         1 FWJ      -0.106100
     14 O08          3.5500    -0.2190    -1.4840 o          1 FWJ      -0.579100
     15 N09          1.6840    -0.5200    -0.2560 n          1 FWJ      -0.485800
     16 C11         -0.1870     0.4770    -1.4630 c6         1 FWJ       0.202800
     17 C14          0.9400    -0.5120     0.9860 c6         1 FWJ       0.089000
     18 S15         -2.4370     1.1240    -0.1550 sy         1 FWJ       1.320200
     19 O16         -2.6220     1.8920     1.0680 o          1 FWJ      -0.606800
     20 O17         -2.7310     1.7580    -1.4320 o          1 FWJ      -0.606800
     21 C18         -3.4840    -0.3120    -0.0320 ca         1 FWJ      -0.257500
     22 C19         -4.8940    -0.1270     0.0310 ca         1 FWJ       0.071000
     23 N22         -7.7070     0.0280     0.1660 nb         1 FWJ      -0.662000
     24 C23         -7.1020    -1.1270     0.1930 ca         1 FWJ       0.435200
     25 C25         -5.1120    -2.5710     0.1630 ca         1 FWJ      -0.042000
     26 C27         -2.9390    -1.5660     0.0010 ca         1 FWJ      -0.008000
     27 C29          7.4990    -0.7840     0.4070 ca         1 FWJ      -0.167500
     28 H1           1.4190    -0.6470    -2.3240 h1         1 FWJ       0.062700
     29 H2           0.3030    -1.6170    -1.3630 h1         1 FWJ       0.062700
     30 H3           0.4570     1.5870     1.0230 h1         1 FWJ       0.067450
     31 H4          -0.6740     0.5470     1.8990 h1         1 FWJ       0.067450
     32 H5          -5.0460     2.0550    -0.0680 ha         1 FWJ       0.158000
     33 H6          -7.4630     2.0790     0.0520 h4         1 FWJ       0.026100
     34 H7          -3.2950    -3.6860     0.1240 ha         1 FWJ       0.140000
     35 H8           5.7720    -1.9350     0.9080 ha         1 FWJ       0.132000
     36 H9           7.5110     2.5560    -0.1940 ha         1 FWJ       0.150500
     37 H10          5.1060     2.2400     0.2680 ha         1 FWJ       0.132000
     38 H11          3.6550    -0.9100     1.5600 hc         1 FWJ       0.064700
     39 H12          3.4070     0.8120     1.4150 hc         1 FWJ       0.064700
     40 H13          0.3230     1.4270    -1.6540 h1         1 FWJ       0.067450
     41 H14         -0.8790     0.2960    -2.2820 h1         1 FWJ       0.067450
     42 H15          1.5960    -0.4100     1.8450 h1         1 FWJ       0.062700
     43 H16          0.4200    -1.4690     1.0920 h1         1 FWJ       0.062700
     44 H17         -7.7230    -2.0140     0.2700 h4         1 FWJ       0.019100
     45 H18         -5.7530    -3.4400     0.2410 ha         1 FWJ       0.139000
     46 H19         -1.8670    -1.6930    -0.0470 ha         1 FWJ       0.141000
     47 H20          8.1800    -1.6240     0.4490 ha         1 FWJ       0.150500
     48 C07          3.0080    -0.2710    -0.3920 c          1 FWJ       0.674100
     49 F01          9.2730     0.6520    -0.1430 f          1 FWJ      -0.143900
@<TRIPOS>BOND
     1     1    15 1   
     2     1    16 1   
     3     1    28 1   
     4     1    29 1   
     5     2     3 1   
     6     2    16 1   
     7     2    18 1   
     8     3    17 1   
     9     3    30 1   
    10     3    31 1   
    11     4     5 ar  
    12     4    22 ar  
    13     4    32 1   
    14     5    23 ar  
    15     5    33 1   
    16     6    22 ar  
    17     6    24 ar  
    18     6    25 ar  
    19     7    25 ar  
    20     7    26 ar  
    21     7    34 1   
    22     8    12 ar  
    23     8    27 ar  
    24     8    35 1   
    25     9    10 ar  
    26     9    27 ar  
    27     9    49 1   
    28    10    11 ar  
    29    10    36 1   
    30    11    12 ar  
    31    11    37 1   
    32    12    13 1   
    33    13    38 1   
    34    13    39 1   
    35    13    48 1   
    36    14    48 2   
    37    15    17 1   
    38    15    48 1   
    39    16    40 1   
    40    16    41 1   
    41    17    42 1   
    42    17    43 1   
    43    18    19 2   
    44    18    20 2   
    45    18    21 1   
    46    21    22 ar  
    47    21    26 ar  
    48    23    24 ar  
    49    24    44 1   
    50    25    45 1   
    51    26    46 1   
    52    27    47 1   
@<TRIPOS>SUBSTRUCTURE
     1 FWJ         1 TEMP              0 ****  ****    0 ROOT
