@<TRIPOS>MOLECULE
FWJ
   49    52     1     0     0
SMALL
No Charge or Current Charge


@<TRIPOS>ATOM
      1 C10          1.4510    -0.5860    -2.4850 c6         1 FWJ       0.089000
      2 N12         -0.8090    -0.1330    -1.4840 n3         1 FWJ      -0.800500
      3 C13         -0.1860    -0.0220    -0.1420 c6         1 FWJ       0.202800
      4 C20         -4.8340     1.6170     0.2160 ca         1 FWJ      -0.157000
      5 C21         -5.8790     2.0880     1.0260 ca         1 FWJ       0.347900
      6 C24         -5.1260    -0.5430     1.2330 ca         1 FWJ      -0.119000
      7 C26         -3.8160    -2.4790     0.5820 ca         1 FWJ      -0.145000
      8 C28          5.9970    -0.1510     0.2550 ca         1 FWJ      -0.066500
      9 C02          6.2210     1.7040     1.8100 ca         1 FWJ       0.176000
     10 C03          5.0010     1.3550     2.4080 ca         1 FWJ      -0.149500
     11 C04          4.2750     0.2500     1.9290 ca         1 FWJ      -0.066500
     12 C05          4.7680    -0.5080     0.8470 ca         1 FWJ      -0.088300
     13 C06          3.9840    -1.7070     0.3160 c3         1 FWJ      -0.106100
     14 O08          4.0180    -1.5520    -2.0760 o          1 FWJ      -0.579100
     15 N09          2.0630    -0.8130    -1.1360 n          1 FWJ      -0.418800
     16 C11          0.1710     0.2890    -2.5100 c6         1 FWJ       0.202800
     17 C14          1.0830    -0.9050    -0.0050 c6         1 FWJ       0.089000
     18 S15         -2.3270     0.6240    -1.6180 sy         1 FWJ       1.178600
     19 O16         -2.1390     2.0130    -1.1900 o          1 FWJ      -0.536000
     20 O17         -2.8130     0.2970    -2.9630 o          1 FWJ      -0.536000
     21 C18         -3.3600    -0.3040    -0.4490 ca         1 FWJ      -0.257500
     22 C19         -4.4150     0.2710     0.3180 ca         1 FWJ       0.071000
     23 N22         -6.5360     1.3140     1.9140 nb         1 FWJ      -0.662000
     24 C23         -6.1600     0.0200     2.0060 ca         1 FWJ       0.369900
     25 C25         -4.8210    -1.9080     1.3710 ca         1 FWJ      -0.024000
     26 C27         -3.0970    -1.6880    -0.3250 ca         1 FWJ       0.010000
     27 C29          6.7210     0.9540     0.7350 ca         1 FWJ      -0.149500
     28 H1           2.1930    -0.1250    -3.1530 h1         1 FWJ       0.062700
     29 H2           1.2010    -1.5670    -2.9130 h1         1 FWJ       0.062700
     30 H3           0.0960     1.0230     0.0600 h1         1 FWJ       0.067450
     31 H4          -0.8890    -0.3150     0.6510 h1         1 FWJ       0.067450
     32 H5          -4.3970     2.3180    -0.4820 ha         1 FWJ       0.140000
     33 H6          -6.2070     3.1250     0.9540 h4         1 FWJ       0.026100
     34 H7          -3.5900    -3.5390     0.6730 ha         1 FWJ       0.122000
     35 H8           6.3900    -0.7290    -0.5790 ha         1 FWJ       0.114000
     36 H9           4.6210     1.9400     3.2420 ha         1 FWJ       0.132500
     37 H10          3.3320    -0.0140     2.4030 ha         1 FWJ       0.114000
     38 H11          4.6730    -2.5510     0.1930 hc         1 FWJ       0.064700
     39 H12          3.2200    -1.9870     1.0460 hc         1 FWJ       0.064700
     40 H13          0.4600     1.3400    -2.3550 h1         1 FWJ       0.067450
     41 H14         -0.2610     0.2240    -3.5190 h1         1 FWJ       0.067450
     42 H15          1.5680    -0.6200     0.9360 h1         1 FWJ       0.062700
     43 H16          0.7660    -1.9530     0.0910 h1         1 FWJ       0.062700
     44 H17         -6.7140    -0.5890     2.7200 h4         1 FWJ       0.019100
     45 H18         -5.3720    -2.5290     2.0740 ha         1 FWJ       0.121000
     46 H19         -2.3230    -2.1600    -0.9270 ha         1 FWJ       0.123000
     47 H20          7.6680     1.2290     0.2770 ha         1 FWJ       0.132500
     48 C07          3.3580    -1.3870    -1.0580 c          1 FWJ       0.607100
     49 F01          6.9170     2.7650     2.2710 f          1 FWJ      -0.179000
@<TRIPOS>BOND
     1     1    15 1   
     2     1    16 1   
     3     1    28 1   
     4     1    29 1   
     5     2     3 1   
     6     2    16 1   
     7     2    18 1   
     8     3    17 1   
     9     3    30 1   
    10     3    31 1   
    11     4     5 ar  
    12     4    22 ar  
    13     4    32 1   
    14     5    23 ar  
    15     5    33 1   
    16     6    22 ar  
    17     6    24 ar  
    18     6    25 ar  
    19     7    25 ar  
    20     7    26 ar  
    21     7    34 1   
    22     8    12 ar  
    23     8    27 ar  
    24     8    35 1   
    25     9    10 ar  
    26     9    27 ar  
    27     9    49 1   
    28    10    11 ar  
    29    10    36 1   
    30    11    12 ar  
    31    11    37 1   
    32    12    13 1   
    33    13    38 1   
    34    13    39 1   
    35    13    48 1   
    36    14    48 2   
    37    15    17 1   
    38    15    48 1   
    39    16    40 1   
    40    16    41 1   
    41    17    42 1   
    42    17    43 1   
    43    18    19 2   
    44    18    20 2   
    45    18    21 1   
    46    21    22 ar  
    47    21    26 ar  
    48    23    24 ar  
    49    24    44 1   
    50    25    45 1   
    51    26    46 1   
    52    27    47 1   
@<TRIPOS>SUBSTRUCTURE
     1 FWJ         1 TEMP              0 ****  ****    0 ROOT
