@<TRIPOS>MOLECULE
FWK
   34    36     1     0     0
SMALL
No Charge or Current Charge


@<TRIPOS>ATOM
      1 C5           3.2480     1.4030     0.0250 c3         1 FWK      -0.094400
      2 C4           3.1750    -0.0520     0.5710 c5         1 FWK       0.163300
      3 O4           1.8330    -0.3470     1.0190 os         1 FWK      -0.444000
      4 C3           3.4700    -1.1660    -0.4830 c5         1 FWK       0.111300
      5 O3           3.7410    -2.4450     0.1030 oh         1 FWK      -0.704000
      6 C2           2.1100    -1.2160    -1.2380 c5         1 FWK       0.080300
      7 O2           1.9360    -2.4950    -1.8850 oh         1 FWK      -0.693000
      8 C1           1.0820    -0.9380    -0.0700 c5         1 FWK       0.318300
      9 N9          -0.0920    -0.1060    -0.3530 na         1 FWK      -0.291300
     10 C8          -0.2080     0.8720    -1.3490 cc         1 FWK       0.405700
     11 N7          -1.4290     1.4400    -1.3440 nd         1 FWK      -0.555100
     12 C7          -2.0830     0.7840    -0.2980 ca         1 FWK      -0.102600
     13 C9          -1.2860    -0.1550     0.3080 ca         1 FWK       0.140500
     14 N3          -1.7200    -0.9120     1.3350 nb         1 FWK      -0.214000
     15 C10         -2.9960    -0.6860     1.7330 ca         1 FWK       0.182900
     16 N1          -3.8620     0.2140     1.2060 nb         1 FWK      -0.303000
     17 C6          -3.3970     0.9520     0.1860 ca         1 FWK       0.450900
     18 N6          -4.2650     1.8520    -0.3480 nv         1 FWK      -1.066900
     19 C11          2.8790     2.4850     1.0610 c3         1 FWK      -0.086100
     20 H1           4.2690     1.5990    -0.3250 hc         1 FWK       0.041200
     21 H2           2.6020     1.5300    -0.8500 hc         1 FWK       0.041200
     22 H3           3.8620    -0.1300     1.4260 h1         1 FWK       0.096700
     23 H4           4.2890    -0.8750    -1.1550 h1         1 FWK       0.055700
     24 H5           3.2390    -3.0640    -0.4860 ho         1 FWK       0.523000
     25 H6           2.0870    -0.4140    -1.9870 h1         1 FWK       0.053700
     26 H7           1.2150    -2.4010    -2.5540 ho         1 FWK       0.514000
     27 H8           0.6800    -1.8990     0.2760 h2         1 FWK       0.124700
     28 H9           0.5990     1.1220    -2.0260 h5         1 FWK       0.065800
     29 H10         -3.3620    -1.2900     2.5610 h5         1 FWK       0.046100
     30 H11         -4.0090     2.2520    -1.2470 hn         1 FWK       0.506000
     31 H12         -5.2580     1.7240    -0.1730 hn         1 FWK       0.506000
     32 H13          1.8390     2.3730     1.3890 hc         1 FWK       0.041367
     33 H14          3.5300     2.4180     1.9410 hc         1 FWK       0.041367
     34 H15          2.9940     3.4860     0.6260 hc         1 FWK       0.041367
@<TRIPOS>BOND
     1     1     2 1   
     2     1    19 1   
     3     1    20 1   
     4     1    21 1   
     5     2     3 1   
     6     2     4 1   
     7     2    22 1   
     8     3     8 1   
     9     4     5 1   
    10     4     6 1   
    11     4    23 1   
    12     5    24 1   
    13     6     7 1   
    14     6     8 1   
    15     6    25 1   
    16     7    26 1   
    17     8     9 1   
    18     8    27 1   
    19     9    10 1   
    20     9    13 1   
    21    10    11 2   
    22    10    28 1   
    23    11    12 1   
    24    12    13 ar  
    25    12    17 ar  
    26    13    14 ar  
    27    14    15 ar  
    28    15    16 ar  
    29    15    29 1   
    30    16    17 ar  
    31    17    18 1   
    32    18    30 1   
    33    18    31 1   
    34    19    32 1   
    35    19    33 1   
    36    19    34 1   
@<TRIPOS>SUBSTRUCTURE
     1 FWK         1 TEMP              0 ****  ****    0 ROOT
