@<TRIPOS>MOLECULE
FWK
   34    36     1     0     0
SMALL
bcc


@<TRIPOS>ATOM
      1 C5           3.6280     1.3390    -0.2970 c3         1 FWK      -0.094400
      2 C4           3.2600     0.0700     0.4570 c5         1 FWK       0.140100
      3 O4           1.9480     0.1700     1.0350 os         1 FWK      -0.397600
      4 C3           3.2030    -1.1650    -0.4310 c5         1 FWK       0.088100
      5 O3           3.4090    -2.3070     0.3610 oh         1 FWK      -0.581800
      6 C2           1.7580    -1.1000    -0.9240 c5         1 FWK       0.057100
      7 O2           1.2180    -2.3180    -1.3450 oh         1 FWK      -0.570800
      8 C1           1.0350    -0.6230     0.3380 c5         1 FWK       0.265800
      9 N9          -0.1600     0.1410     0.0610 na         1 FWK      -0.262000
     10 C8          -0.2330     1.3850    -0.5020 cc         1 FWK       0.405700
     11 N7          -1.4490     1.8210    -0.6400 nd         1 FWK      -0.555100
     12 C7          -2.2300     0.8100    -0.1430 ca         1 FWK      -0.233200
     13 C9          -1.4480    -0.2440     0.3030 ca         1 FWK       0.468800
     14 N3          -1.8840    -1.3770     0.8490 nb         1 FWK      -0.740000
     15 C10         -3.2030    -1.4040     0.9290 ca         1 FWK       0.708900
     16 N1          -4.0760    -0.4780     0.5390 nb         1 FWK      -0.829000
     17 C6          -3.6220     0.6550    -0.0080 ca         1 FWK       0.779200
     18 N6          -4.4930     1.5880    -0.3950 nv         1 FWK      -0.956500
     19 C11          3.5860     2.5860     0.5750 c3         1 FWK      -0.086100
     20 H1           4.6380     1.2040    -0.6930 hc         1 FWK       0.041200
     21 H2           2.9770     1.4670    -1.1680 hc         1 FWK       0.041200
     22 H3           3.9710    -0.0750     1.2760 h1         1 FWK       0.096700
     23 H4           3.9240    -1.1070    -1.2560 h1         1 FWK       0.055700
     24 H5           3.0200    -3.0610    -0.0970 ho         1 FWK       0.424000
     25 H6           1.6800    -0.3360    -1.7080 h1         1 FWK       0.053700
     26 H7           1.4550    -2.4630    -2.2660 ho         1 FWK       0.415000
     27 H8           0.7100    -1.4830     0.9340 h2         1 FWK       0.124700
     28 H9           0.6540     1.9320    -0.7870 h5         1 FWK       0.065800
     29 H10         -3.6370    -2.2960     1.3670 h5         1 FWK       0.046100
     30 H11         -4.1870     2.4290    -0.8530 hn         1 FWK       0.450800
     31 H12         -5.4820     1.4230    -0.3140 hn         1 FWK       0.450800
     32 H13          2.5850     2.7810     0.9580 hc         1 FWK       0.041367
     33 H14          4.2580     2.4900     1.4300 hc         1 FWK       0.041367
     34 H15          3.8980     3.4630     0.0080 hc         1 FWK       0.041367
@<TRIPOS>BOND
     1     1     2 1   
     2     1    19 1   
     3     1    20 1   
     4     1    21 1   
     5     2     3 1   
     6     2     4 1   
     7     2    22 1   
     8     3     8 1   
     9     4     5 1   
    10     4     6 1   
    11     4    23 1   
    12     5    24 1   
    13     6     7 1   
    14     6     8 1   
    15     6    25 1   
    16     7    26 1   
    17     8     9 1   
    18     8    27 1   
    19     9    10 1   
    20     9    13 1   
    21    10    11 2   
    22    10    28 1   
    23    11    12 1   
    24    12    13 ar  
    25    12    17 ar  
    26    13    14 ar  
    27    14    15 ar  
    28    15    16 ar  
    29    15    29 1   
    30    16    17 ar  
    31    17    18 1   
    32    18    30 1   
    33    18    31 1   
    34    19    32 1   
    35    19    33 1   
    36    19    34 1   
@<TRIPOS>SUBSTRUCTURE
     1 FWK         1 TEMP              0 ****  ****    0 ROOT
