@<TRIPOS>MOLECULE
FWL
   28    28     1     0     0
SMALL
No Charge or Current Charge


@<TRIPOS>ATOM
      1 CHA        -39.8070   -12.7450    -0.3010 c3         1 FWL       0.238100
      2 C1A        -38.5900   -11.8600    -0.2370 cc         1 FWL      -0.218300
      3 C2A        -37.8810   -11.4100     0.8560 cd         1 FWL      -0.020300
      4 C3A        -36.7900   -10.6170     0.3910 cd         1 FWL      -0.037300
      5 C4A        -36.8420   -10.5980    -0.9790 cc         1 FWL       0.075000
      6 NA         -37.9340   -11.3570    -1.3600 na         1 FWL      -0.133000
      7 C5A        -38.2030   -11.7100     2.3070 c3         1 FWL      -0.156100
      8 C6A        -37.6070   -13.0560     2.7550 c          1 FWL       0.735000
      9 O1A        -36.4550   -13.0690     3.1660 o          1 FWL      -0.742500
     10 O2A        -38.2670   -14.0690     2.5770 o          1 FWL      -0.742500
     11 C7A        -35.7530    -9.9240     1.2460 c3         1 FWL      -0.004100
     12 C8A        -36.1730    -8.4870     1.6380 c3         1 FWL      -0.195400
     13 C9A        -35.0680    -7.8350     2.4860 c          1 FWL       0.719000
     14 O3A        -35.1040    -7.9850     3.6970 o          1 FWL      -0.755500
     15 O4A        -34.1730    -7.2380     1.9070 o          1 FWL      -0.755500
     16 N1         -40.6260   -12.4200    -1.4740 n8         1 FWL      -0.950200
     17 I4A        -35.5360    -9.6100    -2.3350 i          1 FWL      -0.347000
     18 H1         -40.4230   -12.6130     0.5980 h1         1 FWL       0.010200
     19 H2         -39.4980   -13.7970    -0.3680 h1         1 FWL       0.010200
     20 H3         -38.2230   -11.5180    -2.3180 hn         1 FWL       0.314000
     21 H4         -37.7740   -10.9010     2.9080 hc         1 FWL       0.030700
     22 H5         -39.2960   -11.7460     2.3890 hc         1 FWL       0.030700
     23 H7         -35.5600   -10.5060     2.1550 hc         1 FWL       0.065200
     24 H8         -34.7960    -9.8850     0.7130 hc         1 FWL       0.065200
     25 H9         -36.3050    -7.9470     0.6930 hc         1 FWL       0.013700
     26 H10        -37.0980    -8.5900     2.2190 hc         1 FWL       0.013700
     27 H12        -41.4750   -12.9950    -1.4470 hn         1 FWL       0.370000
     28 H13        -40.9720   -11.4610    -1.3640 hn         1 FWL       0.370000
@<TRIPOS>BOND
     1     1     2 1   
     2     1    16 1   
     3     1    18 1   
     4     1    19 1   
     5     2     3 2   
     6     2     6 1   
     7     3     4 1   
     8     3     7 1   
     9     4     5 2   
    10     4    11 1   
    11     5     6 1   
    12     5    17 1   
    13     6    20 1   
    14     7     8 1   
    15     7    21 1   
    16     7    22 1   
    17     8     9 1   
    18     8    10 1   
    19    11    12 1   
    20    11    23 1   
    21    11    24 1   
    22    12    13 1   
    23    12    25 1   
    24    12    26 1   
    25    13    14 1   
    26    13    15 1   
    27    16    27 1   
    28    16    28 1   
@<TRIPOS>SUBSTRUCTURE
     1 FWL         1 TEMP              0 ****  ****    0 ROOT
