@<TRIPOS>MOLECULE
FWL
   28    28     1     0     0
SMALL
bcc


@<TRIPOS>ATOM
      1 CHA        -40.1390   -12.0710    -0.4990 c3         1 FWL       0.238100
      2 C1A        -38.8270   -11.3750    -0.3620 cc         1 FWL      -0.167600
      3 C2A        -38.0040   -11.2260     0.7310 cd         1 FWL      -0.020300
      4 C3A        -36.8500   -10.5020     0.3120 cd         1 FWL      -0.037300
      5 C4A        -37.0300   -10.2530    -1.0260 cc         1 FWL      -0.011400
      6 NA         -38.2170   -10.7810    -1.4300 na         1 FWL      -0.184100
      7 C5A        -38.2730   -11.7340     2.1060 c3         1 FWL      -0.156100
      8 C6A        -37.6020   -13.0820     2.4780 c          1 FWL       0.945600
      9 O1A        -36.6150   -13.4440     1.8120 o          1 FWL      -0.847800
     10 O2A        -38.1060   -13.6760     3.4540 o          1 FWL      -0.847800
     11 C7A        -35.7240   -10.0490     1.1830 c3         1 FWL      -0.004100
     12 C8A        -36.0000    -8.6960     1.8330 c3         1 FWL      -0.195400
     13 C9A        -34.8910    -8.1370     2.7480 c          1 FWL       0.929600
     14 O3A        -33.8820    -8.8440     2.9420 o          1 FWL      -0.860800
     15 O4A        -35.1060    -7.0030     3.2260 o          1 FWL      -0.860800
     16 N1         -39.9870   -13.5230    -0.4950 n8         1 FWL      -0.839800
     17 I4A        -35.7940    -9.2330    -2.3420 i          1 FWL      -0.209900
     18 H1         -40.6550   -11.6850    -1.3890 h1         1 FWL       0.010200
     19 H2         -40.7690   -11.8030     0.3530 h1         1 FWL       0.010200
     20 H3         -38.5920   -10.7420    -2.3640 hn         1 FWL       0.263700
     21 H4         -37.9300   -10.9970     2.8420 hc         1 FWL       0.030700
     22 H5         -39.3510   -11.8230     2.2700 hc         1 FWL       0.030700
     23 H7         -35.5490   -10.8050     1.9500 hc         1 FWL       0.065200
     24 H8         -34.8000    -9.9940     0.6000 hc         1 FWL       0.065200
     25 H9         -36.2100    -7.9550     1.0540 hc         1 FWL       0.013700
     26 H10        -36.9250    -8.7570     2.4190 hc         1 FWL       0.013700
     27 H12        -40.9040   -13.9500    -0.5550 hn         1 FWL       0.314800
     28 H13        -39.4960   -13.8090    -1.3330 hn         1 FWL       0.314800
@<TRIPOS>BOND
     1     1     2 1   
     2     1    16 1   
     3     1    18 1   
     4     1    19 1   
     5     2     3 2   
     6     2     6 1   
     7     3     4 1   
     8     3     7 1   
     9     4     5 2   
    10     4    11 1   
    11     5     6 1   
    12     5    17 1   
    13     6    20 1   
    14     7     8 1   
    15     7    21 1   
    16     7    22 1   
    17     8     9 1   
    18     8    10 1   
    19    11    12 1   
    20    11    23 1   
    21    11    24 1   
    22    12    13 1   
    23    12    25 1   
    24    12    26 1   
    25    13    14 1   
    26    13    15 1   
    27    16    27 1   
    28    16    28 1   
@<TRIPOS>SUBSTRUCTURE
     1 FWL         1 TEMP              0 ****  ****    0 ROOT
