@<TRIPOS>MOLECULE
FWM
   55    58     1     0     0
SMALL
No Charge or Current Charge


@<TRIPOS>ATOM
      1 C15          0.7390     2.7480    -0.0500 c6         1 FWM       0.096000
      2 C20         -3.1510    -1.0070    -0.0240 ca         1 FWM       0.072000
      3 C21         -2.8140    -1.6860    -1.2180 ca         1 FWM      -0.175000
      4 C22         -2.7340    -3.0870    -1.2330 ca         1 FWM       0.344900
      5 C24         -3.2820    -3.2220     1.0000 ca         1 FWM       0.371900
      6 C26         -3.7210    -1.2540     2.3510 ca         1 FWM      -0.021000
      7 C28         -3.5980     0.9590     1.3650 ca         1 FWM       0.018000
      8 C02          2.4650     0.9090     0.2500 c          1 FWM       0.608100
      9 C03          3.3130    -0.2170    -0.3810 c3         1 FWM      -0.151400
     10 C04          4.5280    -0.7490     0.4410 c6         1 FWM      -0.049700
     11 C05          5.0790    -2.0680    -0.1720 c6         1 FWM      -0.072400
     12 C06          6.2860    -2.6100     0.6340 c6         1 FWM      -0.071900
     13 C07          7.4080    -1.5500     0.7440 c6         1 FWM      -0.075400
     14 C08          6.8720    -0.2320     1.3530 c6         1 FWM      -0.071900
     15 C09          5.6650     0.3090     0.5460 c6         1 FWM      -0.072400
     16 N10          1.5550     1.6160    -0.5710 n          1 FWM      -0.415800
     17 C11          1.0170     1.0990    -1.8640 c6         1 FWM       0.096000
     18 C12         -0.4830     0.7190    -1.7370 c6         1 FWM       0.168800
     19 N13         -1.3030     1.8520    -1.2220 n3         1 FWM      -0.721500
     20 C14         -0.7560     2.3560     0.0720 c6         1 FWM       0.168800
     21 S16         -2.9950     1.6150    -1.2370 sy         1 FWM       1.150600
     22 O17         -3.5730     2.9100    -0.8600 o          1 FWM      -0.531500
     23 O18         -3.3200     1.0290    -2.5410 o          1 FWM      -0.531500
     24 C19         -3.2600     0.4130     0.1040 ca         1 FWM      -0.296500
     25 N23         -2.9620    -3.8540    -0.1490 nb         1 FWM      -0.662000
     26 C25         -3.3860    -1.8220     1.1100 ca         1 FWM      -0.126000
     27 C27         -3.8250     0.1340     2.4750 ca         1 FWM      -0.143000
     28 H1           1.1090     3.0880     0.9270 h1         1 FWM       0.069200
     29 H2           0.8290     3.5980    -0.7410 h1         1 FWM       0.069200
     30 H4          -2.4740    -3.6140    -2.1510 h4         1 FWM       0.024100
     31 H5          -3.4600    -3.8620     1.8630 h4         1 FWM       0.021100
     32 H6          -3.8990    -1.8870     3.2180 ha         1 FWM       0.122000
     33 H7          -3.6870     2.0360     1.5000 ha         1 FWM       0.143000
     34 H8           2.6130    -1.0270    -0.6170 hc         1 FWM       0.057200
     35 H9           3.6150     0.1010    -1.3860 hc         1 FWM       0.057200
     36 H10          4.1560    -0.9740     1.4510 hc         1 FWM       0.067700
     37 H11          4.2870    -2.8290    -0.1980 hc         1 FWM       0.039450
     38 H12          5.3810    -1.8980    -1.2150 hc         1 FWM       0.039450
     39 H13          5.9560    -2.9060     1.6390 hc         1 FWM       0.040450
     40 H14          6.6760    -3.5180     0.1540 hc         1 FWM       0.040450
     41 H15          8.2300    -1.9390     1.3600 hc         1 FWM       0.037700
     42 H16          7.8300    -1.3530    -0.2520 hc         1 FWM       0.037700
     43 H17          6.5730    -0.4010     2.3970 hc         1 FWM       0.040450
     44 H18          7.6720     0.5200     1.3760 hc         1 FWM       0.040450
     45 H19          5.9980     0.5990    -0.4600 hc         1 FWM       0.039450
     46 H20          5.2920     1.2240     1.0240 hc         1 FWM       0.039450
     47 H21          1.1210     1.8830    -2.6270 h1         1 FWM       0.069200
     48 H22          1.5730     0.2260    -2.2260 h1         1 FWM       0.069200
     49 H23         -0.8340     0.4000    -2.7290 h1         1 FWM       0.062950
     50 H24         -0.5630    -0.1480    -1.0660 h1         1 FWM       0.062950
     51 H25         -0.8520     1.5900     0.8560 h1         1 FWM       0.062950
     52 H26         -1.3130     3.2400     0.4140 h1         1 FWM       0.062950
     53 H27         -4.0830     0.5760     3.4350 ha         1 FWM       0.127000
     54 H3          -2.6030    -1.1790    -2.1470 ha         1 FWM       0.147000
     55 O01          2.5910     1.2060     1.4310 o          1 FWM      -0.595100
@<TRIPOS>BOND
     1     1    16 1   
     2     1    20 1   
     3     1    28 1   
     4     1    29 1   
     5     2     3 ar  
     6     2    24 ar  
     7     2    26 ar  
     8     3     4 ar  
     9     3    54 1   
    10     4    25 ar  
    11     4    30 1   
    12     5    25 ar  
    13     5    26 ar  
    14     5    31 1   
    15     6    26 ar  
    16     6    27 ar  
    17     6    32 1   
    18     7    24 ar  
    19     7    27 ar  
    20     7    33 1   
    21     8     9 1   
    22     8    16 1   
    23     8    55 2   
    24     9    10 1   
    25     9    34 1   
    26     9    35 1   
    27    10    11 1   
    28    10    15 1   
    29    10    36 1   
    30    11    12 1   
    31    11    37 1   
    32    11    38 1   
    33    12    13 1   
    34    12    39 1   
    35    12    40 1   
    36    13    14 1   
    37    13    41 1   
    38    13    42 1   
    39    14    15 1   
    40    14    43 1   
    41    14    44 1   
    42    15    45 1   
    43    15    46 1   
    44    16    17 1   
    45    17    18 1   
    46    17    47 1   
    47    17    48 1   
    48    18    19 1   
    49    18    49 1   
    50    18    50 1   
    51    19    20 1   
    52    19    21 1   
    53    20    51 1   
    54    20    52 1   
    55    21    22 2   
    56    21    23 2   
    57    21    24 1   
    58    27    53 1   
@<TRIPOS>SUBSTRUCTURE
     1 FWM         1 TEMP              0 ****  ****    0 ROOT
