@<TRIPOS>MOLECULE
FWM
   55    58     1     0     0
SMALL
abcg2


@<TRIPOS>ATOM
      1 C15          0.8250     2.6370     0.0710 c6         1 FWM       0.096000
      2 C20         -3.2720    -1.0170    -0.0780 ca         1 FWM       0.072000
      3 C21         -2.8680    -1.7310    -1.2300 ca         1 FWM      -0.175000
      4 C22         -2.8740    -3.0980    -1.2140 ca         1 FWM       0.344900
      5 C24         -3.6370    -3.2120     0.9140 ca         1 FWM       0.371900
      6 C26         -4.1180    -1.2020     2.2280 ca         1 FWM      -0.021000
      7 C28         -3.7620     0.9580     1.2560 ca         1 FWM       0.018000
      8 C02          2.6050     0.9740     0.2950 c          1 FWM       0.608100
      9 C03          3.3560    -0.1820    -0.3370 c3         1 FWM      -0.151400
     10 C04          4.5770    -0.6530     0.4450 c6         1 FWM      -0.049700
     11 C05          5.0590    -1.9940    -0.1120 c6         1 FWM      -0.072400
     12 C06          6.3040    -2.5030     0.6090 c6         1 FWM      -0.071900
     13 C07          7.4280    -1.4730     0.5700 c6         1 FWM      -0.075400
     14 C08          6.9600    -0.1340     1.1290 c6         1 FWM      -0.071900
     15 C09          5.7140     0.3700     0.4060 c6         1 FWM      -0.072400
     16 N10          1.6470     1.5710    -0.4630 n          1 FWM      -0.415800
     17 C11          1.1340     1.0630    -1.7170 c6         1 FWM       0.096000
     18 C12         -0.2880     0.5520    -1.5410 c6         1 FWM       0.168800
     19 N13         -1.1110     1.6360    -1.0080 n3         1 FWM      -0.721500
     20 C14         -0.6100     2.1770     0.2610 c6         1 FWM       0.168800
     21 S16         -2.7530     1.5390    -1.1650 sy         1 FWM       1.150600
     22 O17         -3.2750     2.8510    -0.8160 o          1 FWM      -0.531500
     23 O18         -3.0370     1.0110    -2.4880 o          1 FWM      -0.531500
     24 C19         -3.3220     0.3990     0.0810 ca         1 FWM      -0.296500
     25 N23         -3.2510    -3.8470    -0.1570 nb         1 FWM      -0.662000
     26 C25         -3.6770    -1.8030     1.0310 ca         1 FWM      -0.126000
     27 C27         -4.1650     0.1570     2.3380 ca         1 FWM      -0.143000
     28 H1           1.2230     2.9770     1.0220 h1         1 FWM       0.069200
     29 H2           0.8450     3.4800    -0.6260 h1         1 FWM       0.069200
     30 H4          -2.5640    -3.6440    -2.0970 h4         1 FWM       0.024100
     31 H5          -3.9450    -3.8110     1.7670 h4         1 FWM       0.021100
     32 H6          -4.4200    -1.8330     3.0540 ha         1 FWM       0.122000
     33 H7          -3.8100     2.0320     1.3690 ha         1 FWM       0.143000
     34 H8           2.6510    -1.0150    -0.4520 hc         1 FWM       0.057200
     35 H9           3.6670     0.0830    -1.3530 hc         1 FWM       0.057200
     36 H10          4.2870    -0.8080     1.4910 hc         1 FWM       0.067700
     37 H11          4.2560    -2.7340    -0.0410 hc         1 FWM       0.039450
     38 H12          5.2830    -1.8830    -1.1800 hc         1 FWM       0.039450
     39 H13          6.0520    -2.7250     1.6510 hc         1 FWM       0.040450
     40 H14          6.6330    -3.4440     0.1630 hc         1 FWM       0.040450
     41 H15          8.2940    -1.8360     1.1290 hc         1 FWM       0.037700
     42 H16          7.7600    -1.3380    -0.4650 hc         1 FWM       0.037700
     43 H17          6.7400    -0.2440     2.1960 hc         1 FWM       0.040450
     44 H18          7.7590     0.6080     1.0540 hc         1 FWM       0.040450
     45 H19          5.9660     0.5770    -0.6410 hc         1 FWM       0.039450
     46 H20          5.3880     1.3160     0.8430 hc         1 FWM       0.039450
     47 H21          1.1400     1.8680    -2.4570 h1         1 FWM       0.069200
     48 H22          1.7500     0.2580    -2.1040 h1         1 FWM       0.069200
     49 H23         -0.6680     0.2390    -2.5100 h1         1 FWM       0.062950
     50 H24         -0.2830    -0.3150    -0.8690 h1         1 FWM       0.062950
     51 H25         -0.6580     1.4210     1.0550 h1         1 FWM       0.062950
     52 H26         -1.2120     3.0300     0.5660 h1         1 FWM       0.062950
     53 H27         -4.5080     0.6300     3.2470 ha         1 FWM       0.127000
     54 H3          -2.5650    -1.2330    -2.1360 ha         1 FWM       0.147000
     55 O01          2.8490     1.3560     1.4290 o          1 FWM      -0.595100
@<TRIPOS>BOND
     1     1    16 1   
     2     1    20 1   
     3     1    28 1   
     4     1    29 1   
     5     2     3 ar  
     6     2    24 ar  
     7     2    26 ar  
     8     3     4 ar  
     9     3    54 1   
    10     4    25 ar  
    11     4    30 1   
    12     5    25 ar  
    13     5    26 ar  
    14     5    31 1   
    15     6    26 ar  
    16     6    27 ar  
    17     6    32 1   
    18     7    24 ar  
    19     7    27 ar  
    20     7    33 1   
    21     8     9 1   
    22     8    16 1   
    23     8    55 2   
    24     9    10 1   
    25     9    34 1   
    26     9    35 1   
    27    10    11 1   
    28    10    15 1   
    29    10    36 1   
    30    11    12 1   
    31    11    37 1   
    32    11    38 1   
    33    12    13 1   
    34    12    39 1   
    35    12    40 1   
    36    13    14 1   
    37    13    41 1   
    38    13    42 1   
    39    14    15 1   
    40    14    43 1   
    41    14    44 1   
    42    15    45 1   
    43    15    46 1   
    44    16    17 1   
    45    17    18 1   
    46    17    47 1   
    47    17    48 1   
    48    18    19 1   
    49    18    49 1   
    50    18    50 1   
    51    19    20 1   
    52    19    21 1   
    53    20    51 1   
    54    20    52 1   
    55    21    22 2   
    56    21    23 2   
    57    21    24 1   
    58    27    53 1   
@<TRIPOS>SUBSTRUCTURE
     1 FWM         1 TEMP              0 ****  ****    0 ROOT
