@<TRIPOS>MOLECULE
FWN
   30    29     1     0     0
SMALL
No Charge or Current Charge


@<TRIPOS>ATOM
      1 O4          -4.9550     0.4640    -1.1070 oh         1 FWN      -0.710000
      2 C5          -4.1940     1.3890    -0.3050 c3         1 FWN       0.163600
      3 C6          -3.4290     0.6660     0.8360 c3         1 FWN       0.160600
      4 O7          -2.3880    -0.1540     0.2670 os         1 FWN      -0.436000
      5 C8          -1.6100    -0.8860     1.2350 c3         1 FWN       0.161600
      6 C9          -0.5260    -1.7070     0.4970 c3         1 FWN       0.161600
      7 O10          0.4880    -0.8110    -0.0000 os         1 FWN      -0.436000
      8 C11          1.5560    -1.4580    -0.7200 c3         1 FWN       0.162600
      9 C12          2.5740    -0.3890    -1.1840 c3         1 FWN       0.162600
     10 O13          3.3070     0.0960    -0.0400 os         1 FWN      -0.449000
     11 C14          4.2820     1.1040    -0.3430 c3         1 FWN       0.161600
     12 C1           4.9630     1.5060     0.9750 c3         1 FWN      -0.091100
     13 H1          -5.3580     0.9860    -1.8400 ho         1 FWN       0.499000
     14 H2          -3.4720     1.9350    -0.9280 h1         1 FWN       0.025200
     15 H3          -4.8660     2.1320     0.1450 h1         1 FWN       0.025200
     16 H4          -2.9950     1.4210     1.5050 h1         1 FWN       0.026200
     17 H5          -4.1330     0.0580     1.4210 h1         1 FWN       0.026200
     18 H6          -1.1300    -0.2060     1.9520 h1         1 FWN       0.028700
     19 H7          -2.2540    -1.5750     1.7970 h1         1 FWN       0.028700
     20 H8          -0.0840    -2.4240     1.2020 h1         1 FWN       0.028700
     21 H9          -0.9880    -2.2740    -0.3220 h1         1 FWN       0.028700
     22 H10          2.0650    -2.1990    -0.0890 h1         1 FWN       0.027200
     23 H11          1.1600    -1.9760    -1.6030 h1         1 FWN       0.027200
     24 H12          3.2620    -0.8460    -1.9080 h1         1 FWN       0.027700
     25 H13          2.0430     0.4300    -1.6880 h1         1 FWN       0.027700
     26 H14          5.0360     0.7200    -1.0430 h1         1 FWN       0.016700
     27 H15          3.8050     1.9850    -0.7920 h1         1 FWN       0.016700
     28 H16          5.7190     2.2780     0.7900 hc         1 FWN       0.042367
     29 H17          4.2280     1.9060     1.6830 hc         1 FWN       0.042367
     30 H18          5.4590     0.6420     1.4330 hc         1 FWN       0.042367
@<TRIPOS>BOND
     1     1     2 1   
     2     1    13 1   
     3     2     3 1   
     4     2    14 1   
     5     2    15 1   
     6     3     4 1   
     7     3    16 1   
     8     3    17 1   
     9     4     5 1   
    10     5     6 1   
    11     5    18 1   
    12     5    19 1   
    13     6     7 1   
    14     6    20 1   
    15     6    21 1   
    16     7     8 1   
    17     8     9 1   
    18     8    22 1   
    19     8    23 1   
    20     9    10 1   
    21     9    24 1   
    22     9    25 1   
    23    10    11 1   
    24    11    12 1   
    25    11    26 1   
    26    11    27 1   
    27    12    28 1   
    28    12    29 1   
    29    12    30 1   
@<TRIPOS>SUBSTRUCTURE
     1 FWN         1 TEMP              0 ****  ****    0 ROOT
