@<TRIPOS>MOLECULE
FWN
   30    29     1     0     0
SMALL
abcg2


@<TRIPOS>ATOM
      1 O4          -4.7080     0.5980    -1.0930 oh         1 FWN      -0.710000
      2 C5          -4.0070     1.4570    -0.2240 c3         1 FWN       0.163600
      3 C6          -3.2910     0.6420     0.8220 c3         1 FWN       0.160600
      4 O7          -2.2880    -0.1360     0.2200 os         1 FWN      -0.436000
      5 C8          -1.6070    -0.9510     1.1400 c3         1 FWN       0.161600
      6 C9          -0.5200    -1.7190     0.4320 c3         1 FWN       0.161600
      7 O10          0.4710    -0.8300    -0.0160 os         1 FWN      -0.436000
      8 C11          1.5290    -1.4800    -0.6740 c3         1 FWN       0.162600
      9 C12          2.5540    -0.4670    -1.1150 c3         1 FWN       0.162600
     10 O13          3.1590     0.1210     0.0060 os         1 FWN      -0.449000
     11 C14          4.1440     1.0670    -0.3410 c3         1 FWN       0.161600
     12 C1           4.7460     1.6460     0.9200 c3         1 FWN      -0.091100
     13 H1          -5.1740     1.1390    -1.7360 ho         1 FWN       0.499000
     14 H2          -3.2790     2.0780    -0.7620 h1         1 FWN       0.025200
     15 H3          -4.6810     2.1450     0.3030 h1         1 FWN       0.025200
     16 H4          -2.8620     1.3320     1.5620 h1         1 FWN       0.026200
     17 H5          -4.0120     0.0090     1.3600 h1         1 FWN       0.026200
     18 H6          -1.1710    -0.3510     1.9520 h1         1 FWN       0.028700
     19 H7          -2.2890    -1.6730     1.6100 h1         1 FWN       0.028700
     20 H8          -0.1030    -2.4540     1.1360 h1         1 FWN       0.028700
     21 H9          -0.9490    -2.2890    -0.4050 h1         1 FWN       0.028700
     22 H10          2.0000    -2.2300    -0.0220 h1         1 FWN       0.027200
     23 H11          1.1710    -2.0140    -1.5660 h1         1 FWN       0.027200
     24 H12          3.2960    -0.9840    -1.7400 h1         1 FWN       0.027700
     25 H13          2.0790     0.2930    -1.7530 h1         1 FWN       0.027700
     26 H14          4.9280     0.5980    -0.9520 h1         1 FWN       0.016700
     27 H15          3.7080     1.8680    -0.9540 h1         1 FWN       0.016700
     28 H16          5.5110     2.3780     0.6610 hc         1 FWN       0.042367
     29 H17          3.9920     2.1500     1.5260 hc         1 FWN       0.042367
     30 H18          5.2150     0.8730     1.5280 hc         1 FWN       0.042367
@<TRIPOS>BOND
     1     1     2 1   
     2     1    13 1   
     3     2     3 1   
     4     2    14 1   
     5     2    15 1   
     6     3     4 1   
     7     3    16 1   
     8     3    17 1   
     9     4     5 1   
    10     5     6 1   
    11     5    18 1   
    12     5    19 1   
    13     6     7 1   
    14     6    20 1   
    15     6    21 1   
    16     7     8 1   
    17     8     9 1   
    18     8    22 1   
    19     8    23 1   
    20     9    10 1   
    21     9    24 1   
    22     9    25 1   
    23    10    11 1   
    24    11    12 1   
    25    11    26 1   
    26    11    27 1   
    27    12    28 1   
    28    12    29 1   
    29    12    30 1   
@<TRIPOS>SUBSTRUCTURE
     1 FWN         1 TEMP              0 ****  ****    0 ROOT
