@<TRIPOS>MOLECULE
FWO
   33    32     1     0     0
SMALL
bcc


@<TRIPOS>ATOM
      1 C10         22.2960   -18.4750   -62.9090 c3         1 FWO      -0.026300
      2 C13         18.5090   -18.4590   -62.6270 c3         1 FWO      -0.136400
      3 C15         23.1080   -17.2930   -62.3280 c          1 FWO       0.925600
      4 C17         16.8600   -17.2550   -61.1760 c          1 FWO       0.902600
      5 O01         24.2280   -17.5680   -61.8590 o          1 FWO      -0.844300
      6 O02         20.0810   -20.2670   -62.8680 o          1 FWO      -0.687100
      7 O03         22.5810   -16.1650   -62.4100 o          1 FWO      -0.844300
      8 O04         16.0610   -17.8720   -60.4460 o          1 FWO      -0.852800
      9 O05         16.6180   -16.2520   -61.8790 o          1 FWO      -0.852800
     10 N06         20.8850   -18.1580   -62.8280 ns         1 FWO      -0.544900
     11 N07         18.6920   -18.7370   -60.2130 n8         1 FWO      -0.867800
     12 C08         22.6910   -18.7500   -64.3700 c3         1 FWO      -0.066400
     13 C09         24.1280   -19.2060   -64.6290 c3         1 FWO      -0.052700
     14 C11         24.3310   -19.4220   -66.1260 c3         1 FWO      -0.079100
     15 C12         24.4750   -20.4750   -63.8570 c3         1 FWO      -0.079100
     16 C14         19.8930   -19.0570   -62.7860 c          1 FWO       0.677100
     17 C16         18.3110   -17.7990   -61.2550 c3         1 FWO       0.017500
     18 H1          22.4850   -19.3660   -62.3070 h1         1 FWO       0.055700
     19 H2          18.3270   -17.7210   -63.4120 hc         1 FWO       0.050200
     20 H3          17.7780   -19.2610   -62.7560 hc         1 FWO       0.050200
     21 H6          20.6790   -17.1720   -62.7630 hn         1 FWO       0.338500
     22 H10         22.4920   -17.8410   -64.9490 hc         1 FWO       0.025200
     23 H11         22.0150   -19.5170   -64.7620 hc         1 FWO       0.025200
     24 H12         24.8120   -18.4160   -64.3070 hc         1 FWO       0.069700
     25 H13         25.3610   -19.7050   -66.3480 hc         1 FWO       0.017200
     26 H14         23.6830   -20.2190   -66.4980 hc         1 FWO       0.017200
     27 H15         24.1040   -18.5180   -66.6950 hc         1 FWO       0.017200
     28 H16         24.4520   -20.3100   -62.7800 hc         1 FWO       0.017200
     29 H17         23.7720   -21.2790   -64.0890 hc         1 FWO       0.017200
     30 H18         25.4760   -20.8300   -64.1120 hc         1 FWO       0.017200
     31 H19         18.9880   -16.9410   -61.1920 h1         1 FWO       0.055700
     32 H7          18.6870   -18.2520   -59.3240 hn         1 FWO       0.318800
     33 H8          17.9530   -19.4260   -60.1280 hn         1 FWO       0.318800
@<TRIPOS>BOND
     1     1     3 1   
     2     1    10 1   
     3     1    12 1   
     4     1    18 1   
     5     2    16 1   
     6     2    17 1   
     7     2    19 1   
     8     2    20 1   
     9     3     5 1   
    10     3     7 1   
    11     4     8 1   
    12     4     9 1   
    13     4    17 1   
    14     6    16 2   
    15    10    16 1   
    16    10    21 1   
    17    11    17 1   
    18    11    32 1   
    19    11    33 1   
    20    12    13 1   
    21    12    22 1   
    22    12    23 1   
    23    13    14 1   
    24    13    15 1   
    25    13    24 1   
    26    14    25 1   
    27    14    26 1   
    28    14    27 1   
    29    15    28 1   
    30    15    29 1   
    31    15    30 1   
    32    17    31 1   
@<TRIPOS>SUBSTRUCTURE
     1 FWO         1 TEMP              0 ****  ****    0 ROOT
