@<TRIPOS>MOLECULE
FWO
   33    32     1     0     0
SMALL
No Charge or Current Charge


@<TRIPOS>ATOM
      1 C10         22.4150   -18.2670   -63.0690 c3         1 FWO      -0.026300
      2 C13         18.5910   -18.4360   -62.4030 c3         1 FWO      -0.136400
      3 C15         23.2270   -16.9490   -62.8490 c          1 FWO       0.715000
      4 C17         17.1500   -16.9040   -60.9010 c          1 FWO       0.692000
      5 O01         24.1100   -16.9470   -62.0020 o          1 FWO      -0.739000
      6 O02         20.3350   -20.1330   -62.2980 o          1 FWO      -0.687100
      7 O03         22.8710   -15.9400   -63.4430 o          1 FWO      -0.739000
      8 O04         15.9870   -17.0860   -61.2380 o          1 FWO      -0.747500
      9 O05         17.5510   -15.8470   -60.4340 o          1 FWO      -0.747500
     10 N06         20.9690   -18.0150   -62.8540 ns         1 FWO      -0.477900
     11 N07         17.6710   -19.3890   -60.2590 n8         1 FWO      -0.978200
     12 C08         22.6690   -18.8980   -64.4670 c3         1 FWO      -0.066400
     13 C09         24.1500   -19.2450   -64.7890 c3         1 FWO      -0.052700
     14 C11         24.2980   -19.7250   -66.2510 c3         1 FWO      -0.079100
     15 C12         24.7480   -20.2840   -63.8100 c3         1 FWO      -0.079100
     16 C14         20.0340   -18.9600   -62.4900 c          1 FWO       0.610100
     17 C16         18.1500   -18.1340   -60.9420 c3         1 FWO       0.017500
     18 H1          22.7410   -18.9770   -62.2990 h1         1 FWO       0.055700
     19 H2          18.5340   -17.4920   -62.9590 hc         1 FWO       0.050200
     20 H3          17.9040   -19.1620   -62.8520 hc         1 FWO       0.050200
     21 H6          20.6280   -17.0700   -62.9990 hn         1 FWO       0.338500
     22 H10         22.2970   -18.2030   -65.2310 hc         1 FWO       0.025200
     23 H11         22.0670   -19.8100   -64.5620 hc         1 FWO       0.025200
     24 H12         24.7440   -18.3270   -64.6970 hc         1 FWO       0.069700
     25 H13         25.3510   -19.9190   -66.4920 hc         1 FWO       0.017200
     26 H14         23.7320   -20.6500   -66.4180 hc         1 FWO       0.017200
     27 H15         23.9280   -18.9650   -66.9490 hc         1 FWO       0.017200
     28 H16         24.7680   -19.8980   -62.7840 hc         1 FWO       0.017200
     29 H17         24.1620   -21.2110   -63.8190 hc         1 FWO       0.017200
     30 H18         25.7800   -20.5290   -64.0900 hc         1 FWO       0.017200
     31 H19         19.0450   -17.7960   -60.3990 h1         1 FWO       0.055700
     32 H7          17.4460   -19.1720   -59.2800 hn         1 FWO       0.374000
     33 H8          16.7590   -19.6430   -60.6570 hn         1 FWO       0.374000
@<TRIPOS>BOND
     1     1     3 1   
     2     1    10 1   
     3     1    12 1   
     4     1    18 1   
     5     2    16 1   
     6     2    17 1   
     7     2    19 1   
     8     2    20 1   
     9     3     5 1   
    10     3     7 1   
    11     4     8 1   
    12     4     9 1   
    13     4    17 1   
    14     6    16 2   
    15    10    16 1   
    16    10    21 1   
    17    11    17 1   
    18    11    32 1   
    19    11    33 1   
    20    12    13 1   
    21    12    22 1   
    22    12    23 1   
    23    13    14 1   
    24    13    15 1   
    25    13    24 1   
    26    14    25 1   
    27    14    26 1   
    28    14    27 1   
    29    15    28 1   
    30    15    29 1   
    31    15    30 1   
    32    17    31 1   
@<TRIPOS>SUBSTRUCTURE
     1 FWO         1 TEMP              0 ****  ****    0 ROOT
