@<TRIPOS>MOLECULE
FWP
   57    60     1     0     0
SMALL
bcc


@<TRIPOS>ATOM
      1 C15         -0.2850     3.2720     0.4790 c6         1 FWP       0.095000
      2 C20         -2.8500    -1.4130     0.0340 ca         1 FWP       0.070000
      3 C21         -2.5100    -1.6590    -1.3170 ca         1 FWP      -0.254300
      4 C22         -1.9940    -2.8750    -1.6720 ca         1 FWP       0.409200
      5 C24         -2.1120    -3.7000     0.4330 ca         1 FWP       0.431200
      6 C26         -2.9610    -2.3640     2.3040 ca         1 FWP      -0.044000
      7 C28         -3.6720    -0.1090     1.9150 ca         1 FWP       0.001000
      8 C01          7.4970    -2.1970     0.7600 c3         1 FWP       0.125700
      9 C03          5.3300    -1.3530     0.3020 ca         1 FWP       0.182100
     10 C04          3.9470    -1.5410     0.4180 ca         1 FWP      -0.251000
     11 C05          3.0770    -0.5970    -0.1010 ca         1 FWP       0.187100
     12 C06          3.5620     0.5510    -0.7480 ca         1 FWP      -0.139300
     13 C07          2.5920     1.5370    -1.3200 c3         1 FWP      -0.087100
     14 C08          1.8070     2.2470    -0.2270 c          1 FWP       0.679100
     15 O09          2.2800     2.3680     0.8910 o          1 FWP      -0.586100
     16 N10          0.6010     2.7750    -0.5530 n          1 FWP      -0.475800
     17 C11         -0.1130     2.5620    -1.7950 c6         1 FWP       0.095000
     18 C12         -1.1990     1.5160    -1.6020 c6         1 FWP       0.167800
     19 N13         -2.0860     1.9640    -0.5280 n3         1 FWP      -0.724500
     20 C14         -1.4030     2.2700     0.7320 c6         1 FWP       0.167800
     21 S16         -3.5860     1.2820    -0.3880 sy         1 FWP       1.294200
     22 O17         -4.3860     2.1920     0.4130 o          1 FWP      -0.603300
     23 O18         -4.0420     0.9390    -1.7240 o          1 FWP      -0.603300
     24 C19         -3.3720    -0.2030     0.5790 ca         1 FWP      -0.291500
     25 N23         -1.7880    -3.8960    -0.8140 nb         1 FWP      -0.663000
     26 C25         -2.6470    -2.4900     0.9350 ca         1 FWP      -0.194300
     27 C27         -3.4710    -1.1940     2.7860 ca         1 FWP      -0.159000
     28 C29          4.9280     0.7080    -0.8460 ca         1 FWP      -0.042000
     29 C30          5.8290    -0.2240    -0.3320 ca         1 FWP      -0.251000
     30 C32          1.1570    -1.8040     0.6190 c3         1 FWP       0.123700
     31 H1           0.2620     3.4390     1.4020 h1         1 FWP       0.069200
     32 H2          -0.7080     4.2260     0.1570 h1         1 FWP       0.069200
     33 H3          -2.6580    -0.9210    -2.0880 ha         1 FWP       0.165000
     34 H4          -1.7280    -3.0630    -2.7050 h4         1 FWP       0.026100
     35 H5          -1.9540    -4.5220     1.1260 h4         1 FWP       0.021100
     36 H6          -2.7930    -3.2070     2.9620 ha         1 FWP       0.140000
     37 H7          -4.0690     0.8100     2.3220 ha         1 FWP       0.163000
     38 H8           7.9160    -3.0790     1.2390 h1         1 FWP       0.041700
     39 H9           7.8480    -2.1580    -0.2740 h1         1 FWP       0.041700
     40 H10          7.8530    -1.3070     1.2860 h1         1 FWP       0.041700
     41 H11          3.5890    -2.4330     0.9140 ha         1 FWP       0.150000
     42 H12          3.1300     2.2970    -1.8950 hc         1 FWP       0.063200
     43 H13          1.9320     1.0330    -2.0260 hc         1 FWP       0.063200
     44 H14         -0.5670     3.5090    -2.0980 h1         1 FWP       0.069200
     45 H15          0.5480     2.2600    -2.6010 h1         1 FWP       0.069200
     46 H16         -1.7620     1.4120    -2.5260 h1         1 FWP       0.063950
     47 H17         -0.7320     0.5520    -1.3670 h1         1 FWP       0.063950
     48 H18         -0.9860     1.3610     1.1830 h1         1 FWP       0.063950
     49 H19         -2.1070     2.7070     1.4380 h1         1 FWP       0.063950
     50 H20         -3.7190    -1.0850     3.8330 ha         1 FWP       0.145000
     51 H21          5.3190     1.5900    -1.3400 ha         1 FWP       0.130000
     52 H22          6.8890    -0.0460    -0.4380 ha         1 FWP       0.139000
     53 H23          1.4150    -2.7480     0.1300 h1         1 FWP       0.042700
     54 H24          1.4490    -1.8600     1.6710 h1         1 FWP       0.042700
     55 H25          0.0800    -1.6650     0.5620 h1         1 FWP       0.042700
     56 O31          1.7360    -0.6940    -0.0330 os         1 FWP      -0.327900
     57 O02          6.0920    -2.3270     0.8370 os         1 FWP      -0.318900
@<TRIPOS>BOND
     1     1    16 1   
     2     1    20 1   
     3     1    31 1   
     4     1    32 1   
     5     2     3 ar  
     6     2    24 ar  
     7     2    26 ar  
     8     3     4 ar  
     9     3    33 1   
    10     4    25 ar  
    11     4    34 1   
    12     5    25 ar  
    13     5    26 ar  
    14     5    35 1   
    15     6    26 ar  
    16     6    27 ar  
    17     6    36 1   
    18     7    24 ar  
    19     7    27 ar  
    20     7    37 1   
    21     8    38 1   
    22     8    39 1   
    23     8    40 1   
    24     8    57 1   
    25     9    10 ar  
    26     9    29 ar  
    27     9    57 1   
    28    10    11 ar  
    29    10    41 1   
    30    11    12 ar  
    31    11    56 1   
    32    12    13 1   
    33    12    28 ar  
    34    13    14 1   
    35    13    42 1   
    36    13    43 1   
    37    14    15 2   
    38    14    16 1   
    39    16    17 1   
    40    17    18 1   
    41    17    44 1   
    42    17    45 1   
    43    18    19 1   
    44    18    46 1   
    45    18    47 1   
    46    19    20 1   
    47    19    21 1   
    48    20    48 1   
    49    20    49 1   
    50    21    22 2   
    51    21    23 2   
    52    21    24 1   
    53    27    50 1   
    54    28    29 ar  
    55    28    51 1   
    56    29    52 1   
    57    30    53 1   
    58    30    54 1   
    59    30    55 1   
    60    30    56 1   
@<TRIPOS>SUBSTRUCTURE
     1 FWP         1 TEMP              0 ****  ****    0 ROOT
