@<TRIPOS>MOLECULE
FWP
   57    60     1     0     0
SMALL
No Charge or Current Charge


@<TRIPOS>ATOM
      1 C15         -0.0260     2.9700     0.5410 c6         1 FWP       0.095000
      2 C20         -3.1030    -1.4330     0.2140 ca         1 FWP       0.070000
      3 C21         -3.0630    -1.6540    -1.1830 ca         1 FWP      -0.171000
      4 C22         -2.7570    -2.9260    -1.6890 ca         1 FWP       0.343900
      5 C24         -2.5260    -3.7990     0.4310 ca         1 FWP       0.365900
      6 C26         -2.8360    -2.4580     2.4290 ca         1 FWP      -0.026000
      7 C28         -3.4010    -0.1060     2.2490 ca         1 FWP       0.019000
      8 C01          7.3090    -2.1220     1.4510 c3         1 FWP       0.148900
      9 C03          5.2780    -1.2180     0.3800 ca         1 FWP       0.182100
     10 C04          3.9430    -1.4340     0.0130 ca         1 FWP      -0.233000
     11 C05          3.2110    -0.4310    -0.6550 ca         1 FWP       0.187100
     12 C06          3.8300     0.8040    -0.9580 ca         1 FWP      -0.139300
     13 C07          3.0630     1.9280    -1.6670 c3         1 FWP      -0.087100
     14 C08          2.1550     2.6770    -0.6660 c          1 FWP       0.612100
     15 O09          2.6510     3.5040     0.0910 o          1 FWP      -0.586100
     16 N10          0.7850     2.3320    -0.5410 n          1 FWP      -0.408800
     17 C11         -0.0400     1.9110    -1.7170 c6         1 FWP       0.095000
     18 C12         -1.3780     1.2230    -1.3410 c6         1 FWP       0.167800
     19 N13         -2.1730     1.9980    -0.3580 n3         1 FWP      -0.724500
     20 C14         -1.3540     2.2360     0.8570 c6         1 FWP       0.167800
     21 S16         -3.7360     1.3800    -0.0420 sy         1 FWP       1.152600
     22 O17         -4.3550     2.3390     0.8810 o          1 FWP      -0.532500
     23 O18         -4.3530     1.1280    -1.3480 o          1 FWP      -0.532500
     24 C19         -3.3930    -0.1790     0.8360 ca         1 FWP      -0.291500
     25 N23         -2.4880    -3.9890    -0.9050 nb         1 FWP      -0.663000
     26 C25         -2.8240    -2.5590     1.0280 ca         1 FWP      -0.129000
     27 C27         -3.1260    -1.2320     3.0350 ca         1 FWP      -0.141000
     28 C29          5.1710     1.0160    -0.5840 ca         1 FWP      -0.024000
     29 C30          5.8930     0.0120     0.0800 ca         1 FWP      -0.233000
     30 C32          1.1600    -1.8150    -0.6990 c3         1 FWP       0.146900
     31 H1           0.5650     3.0230     1.4660 h1         1 FWP       0.069200
     32 H2          -0.2570     4.0020     0.2420 h1         1 FWP       0.069200
     33 H3          -3.2560    -0.8790    -1.9090 ha         1 FWP       0.147000
     34 H4          -2.7230    -3.0990    -2.7640 h4         1 FWP       0.026100
     35 H5          -2.3070    -4.6730     1.0430 h4         1 FWP       0.021100
     36 H6          -2.6200    -3.3270     3.0470 ha         1 FWP       0.122000
     37 H7          -3.6150     0.8330     2.7570 ha         1 FWP       0.145000
     38 H8           7.6350    -3.0460     1.9460 h1         1 FWP       0.041700
     39 H9           7.9670    -1.9470     0.5900 h1         1 FWP       0.041700
     40 H10          7.4290    -1.2950     2.1620 h1         1 FWP       0.041700
     41 H11          3.4950    -2.3910     0.2570 ha         1 FWP       0.132000
     42 H12          3.7780     2.6510    -2.0780 hc         1 FWP       0.063200
     43 H13          2.5050     1.5000    -2.5010 hc         1 FWP       0.063200
     44 H14         -0.2600     2.8000    -2.3250 h1         1 FWP       0.069200
     45 H15          0.5030     1.2060    -2.3560 h1         1 FWP       0.069200
     46 H16         -1.9450     1.0690    -2.2700 h1         1 FWP       0.063950
     47 H17         -1.1400     0.2300    -0.9350 h1         1 FWP       0.063950
     48 H18         -1.1080     1.2830     1.3480 h1         1 FWP       0.063950
     49 H19         -1.9070     2.8410     1.5900 h1         1 FWP       0.063950
     50 H20         -3.1360    -1.1520     4.1200 ha         1 FWP       0.127000
     51 H21          5.6570     1.9650    -0.8040 ha         1 FWP       0.112000
     52 H22          6.9250     0.2100     0.3530 ha         1 FWP       0.121000
     53 H23          1.6330    -2.6990    -1.1440 h1         1 FWP       0.042700
     54 H24          1.1050    -1.9520     0.3890 h1         1 FWP       0.042700
     55 H25          0.1350    -1.7510    -1.0850 h1         1 FWP       0.042700
     56 O31          1.8930    -0.6210    -1.0270 os         1 FWP      -0.351100
     57 O02          5.9380    -2.2400     1.0300 os         1 FWP      -0.342100
@<TRIPOS>BOND
     1     1    16 1   
     2     1    20 1   
     3     1    31 1   
     4     1    32 1   
     5     2     3 ar  
     6     2    24 ar  
     7     2    26 ar  
     8     3     4 ar  
     9     3    33 1   
    10     4    25 ar  
    11     4    34 1   
    12     5    25 ar  
    13     5    26 ar  
    14     5    35 1   
    15     6    26 ar  
    16     6    27 ar  
    17     6    36 1   
    18     7    24 ar  
    19     7    27 ar  
    20     7    37 1   
    21     8    38 1   
    22     8    39 1   
    23     8    40 1   
    24     8    57 1   
    25     9    10 ar  
    26     9    29 ar  
    27     9    57 1   
    28    10    11 ar  
    29    10    41 1   
    30    11    12 ar  
    31    11    56 1   
    32    12    13 1   
    33    12    28 ar  
    34    13    14 1   
    35    13    42 1   
    36    13    43 1   
    37    14    15 2   
    38    14    16 1   
    39    16    17 1   
    40    17    18 1   
    41    17    44 1   
    42    17    45 1   
    43    18    19 1   
    44    18    46 1   
    45    18    47 1   
    46    19    20 1   
    47    19    21 1   
    48    20    48 1   
    49    20    49 1   
    50    21    22 2   
    51    21    23 2   
    52    21    24 1   
    53    27    50 1   
    54    28    29 ar  
    55    28    51 1   
    56    29    52 1   
    57    30    53 1   
    58    30    54 1   
    59    30    55 1   
    60    30    56 1   
@<TRIPOS>SUBSTRUCTURE
     1 FWP         1 TEMP              0 ****  ****    0 ROOT
