@<TRIPOS>MOLECULE
FWQ
  102   108     1     0     0
SMALL
abcg2


@<TRIPOS>ATOM
      1 C1           4.1470    -3.7810    -2.5700 ca         1 FWQ       0.020083
      2 C2           3.0890    -2.8840    -2.6260 ca         1 FWQ      -0.173883
      3 C3           1.7870    -3.3850    -2.5750 ca         1 FWQ       0.159267
      4 C4           1.5400    -4.7570    -2.4980 ca         1 FWQ      -0.173883
      5 C5           2.6220    -5.6230    -2.4480 ca         1 FWQ       0.020083
      6 C6           3.9230    -5.1450    -2.4790 ca         1 FWQ      -0.249167
      7 C7           3.3640    -1.4110    -2.7450 c3         1 FWQ       0.046367
      8 C8           3.3120    -0.6480    -1.4360 ca         1 FWQ      -0.173883
      9 C9           3.0990    -1.2760    -0.2180 ca         1 FWQ       0.020083
     10 C10          3.1200    -0.5540     0.9670 ca         1 FWQ      -0.249167
     11 C11          3.3420     0.8110     0.9390 ca         1 FWQ       0.020083
     12 C12          3.5590     1.4760    -0.2600 ca         1 FWQ      -0.173883
     13 C14          3.8260     2.9640    -0.2540 c3         1 FWQ       0.046367
     14 C15          0.1320    -5.2920    -2.5030 c3         1 FWQ       0.046367
     15 C16         -0.6860    -4.9360    -1.2830 ca         1 FWQ      -0.173883
     16 C17         -0.4170    -5.5750    -0.0770 ca         1 FWQ       0.020083
     17 C19         -2.2930    -4.4930     0.9490 ca         1 FWQ       0.020083
     18 C21         -1.7470    -4.0340    -1.3320 ca         1 FWQ       0.159267
     19 C18         -1.2060    -5.3540     1.0350 ca         1 FWQ      -0.249167
     20 C20         -2.5780    -3.8220    -0.2290 ca         1 FWQ      -0.173883
     21 C36         -3.4870    -1.4310    -0.2750 ca         1 FWQ      -0.173883
     22 C37         -3.3090    -0.8180     0.9570 ca         1 FWQ       0.020083
     23 C13          3.5440     0.7320    -1.4380 ca         1 FWQ       0.159267
     24 C29         -3.7800    -2.9150    -0.3190 c3         1 FWQ       0.046367
     25 C38         -3.1650     0.5550     1.0620 ca         1 FWQ      -0.249167
     26 C39         -3.2040     1.3400    -0.0800 ca         1 FWQ       0.020083
     27 C40         -3.3740     0.7620    -1.3310 ca         1 FWQ      -0.173883
     28 C41         -3.4920    -0.6320    -1.4230 ca         1 FWQ       0.159267
     29 C43         -3.5130     1.5850    -2.5940 c3         1 FWQ       0.046367
     30 C44          2.5770     3.8150    -0.2150 ca         1 FWQ      -0.173883
     31 C45          1.8500     4.1290    -1.3720 ca         1 FWQ       0.159267
     32 C46          0.7030     4.9260    -1.2920 ca         1 FWQ      -0.173883
     33 C47          0.3050     5.4130    -0.0560 ca         1 FWQ       0.020083
     34 C48          1.0200     5.1200     1.0920 ca         1 FWQ      -0.249167
     35 C49          2.1440     4.3170     1.0040 ca         1 FWQ       0.020083
     36 C50         -3.1820     3.0460    -2.4600 ca         1 FWQ      -0.173883
     37 C51         -4.1940     3.9970    -2.4110 ca         1 FWQ       0.020083
     38 C52         -3.8980     5.3490    -2.3770 ca         1 FWQ      -0.249167
     39 C53         -2.5720     5.7600    -2.4090 ca         1 FWQ       0.020083
     40 C54         -1.5360     4.8390    -2.4460 ca         1 FWQ      -0.173883
     41 C55         -1.8530     3.4770    -2.4430 ca         1 FWQ       0.159267
     42 O1           2.2350     3.7330    -2.5990 oh         1 FWQ      -0.584267
     43 O2           3.7910     1.4130    -2.5880 oh         1 FWQ      -0.584267
     44 O3           0.7010    -2.5790    -2.6280 oh         1 FWQ      -0.584267
     45 O4          -2.0430    -3.3620    -2.4800 oh         1 FWQ      -0.584267
     46 O5          -3.6750    -1.1520    -2.6550 oh         1 FWQ      -0.584267
     47 O6          -0.8200     2.6130    -2.4740 oh         1 FWQ      -0.584267
     48 S64          0.5970     5.8950     2.6410 s6         1 FWQ       1.264100
     49 S67          3.0330    -1.4200     2.5270 s6         1 FWQ       1.264100
     50 S68          5.3150    -6.2600    -2.3610 s6         1 FWQ       1.264100
     51 S69         -0.9330    -6.2630     2.5480 s6         1 FWQ       1.264100
     52 S70         -3.0010     1.2850     2.6860 s6         1 FWQ       1.264100
     53 S71         -5.2090     6.5530    -2.2370 s6         1 FWQ       1.264100
     54 C72         -0.1010     5.2890    -2.5180 c3         1 FWQ       0.046367
     55 O7          -0.8530     6.1490     2.5960 o          1 FWQ      -0.701867
     56 O8           1.0040     4.9510     3.6970 o          1 FWQ      -0.701867
     57 O9           1.3910     7.1420     2.6620 o          1 FWQ      -0.701867
     58 O10          2.4830    -0.4590     3.4970 o          1 FWQ      -0.701867
     59 O11          2.1810    -2.5960     2.2950 o          1 FWQ      -0.701867
     60 O12          4.4370    -1.7780     2.8170 o          1 FWQ      -0.701867
     61 O13          6.3160    -5.7380    -3.3080 o          1 FWQ      -0.701867
     62 O14          5.7550    -6.1810    -0.9570 o          1 FWQ      -0.701867
     63 O15          4.7960    -7.5880    -2.7330 o          1 FWQ      -0.701867
     64 O16          0.4420    -6.7860     2.4700 o          1 FWQ      -0.701867
     65 O17         -1.1340    -5.2930     3.6380 o          1 FWQ      -0.701867
     66 O18         -1.9560    -7.3260     2.5350 o          1 FWQ      -0.701867
     67 O19         -3.1590     2.7350     2.4950 o          1 FWQ      -0.701867
     68 O20         -4.1040     0.6860     3.4700 o          1 FWQ      -0.701867
     69 O21         -1.6770     0.8790     3.1760 o          1 FWQ      -0.701867
     70 O22         -5.3960     6.7570    -0.7890 o          1 FWQ      -0.701867
     71 O23         -4.7180     7.7600    -2.9280 o          1 FWQ      -0.701867
     72 O24         -6.3830     5.9420    -2.8870 o          1 FWQ      -0.701867
     73 H1           5.1580    -3.3940    -2.6180 ha         1 FWQ       0.129667
     74 H2           2.4370    -6.6890    -2.3960 ha         1 FWQ       0.129667
     75 H3           4.3610    -1.2950    -3.1790 hc         1 FWQ       0.021117
     76 H4           2.6840    -0.9650    -3.4820 hc         1 FWQ       0.021117
     77 H5           2.9240    -2.3430    -0.1870 ha         1 FWQ       0.129667
     78 H6           3.3530     1.3800     1.8600 ha         1 FWQ       0.129667
     79 H7           4.4120     3.1910     0.6380 hc         1 FWQ       0.021117
     80 H8           4.4670     3.2470    -1.0930 hc         1 FWQ       0.021117
     81 H9          -0.3780    -4.9840    -3.4190 hc         1 FWQ       0.021117
     82 H10          0.1870    -6.3810    -2.5620 hc         1 FWQ       0.021117
     83 H11          0.4130    -6.2690    -0.0280 ha         1 FWQ       0.129667
     84 H12         -2.9300    -4.3310     1.8100 ha         1 FWQ       0.129667
     85 H13         -3.3260    -1.4350     1.8490 ha         1 FWQ       0.129667
     86 H14         -4.3720    -3.1640    -1.2040 hc         1 FWQ       0.021117
     87 H15         -4.4320    -3.1440     0.5260 hc         1 FWQ       0.021117
     88 H16         -3.1170     2.4160     0.0090 ha         1 FWQ       0.129667
     89 H17         -2.9080     1.1420    -3.3920 hc         1 FWQ       0.021117
     90 H18         -4.5430     1.5000    -2.9500 hc         1 FWQ       0.021117
     91 H19         -0.5860     6.0280    -0.0010 ha         1 FWQ       0.129667
     92 H20          2.7090     4.0760     1.8970 ha         1 FWQ       0.129667
     93 H21         -5.2240     3.6620    -2.4270 ha         1 FWQ       0.129667
     94 H22         -2.3300     6.8160    -2.4180 ha         1 FWQ       0.129667
     95 H23          2.8630     2.9930    -2.5820 ho         1 FWQ       0.475167
     96 H24          3.7230     0.8590    -3.3730 ho         1 FWQ       0.475167
     97 H25          0.9260    -1.6520    -2.4970 ho         1 FWQ       0.475167
     98 H26         -1.2190    -3.0830    -2.9070 ho         1 FWQ       0.475167
     99 H27         -3.2810    -2.0410    -2.6890 ho         1 FWQ       0.475167
    100 H28         -1.1020     1.7280    -2.2210 ho         1 FWQ       0.475167
    101 H29         -0.0910     6.3760    -2.6380 hc         1 FWQ       0.021117
    102 H30          0.3650     4.8830    -3.4150 hc         1 FWQ       0.021117
@<TRIPOS>BOND
     1     1     2 ar  
     2     1     6 ar  
     3     1    73 1   
     4     2     3 ar  
     5     2     7 1   
     6     3     4 ar  
     7     3    44 1   
     8     4     5 ar  
     9     4    14 1   
    10     5     6 ar  
    11     5    74 1   
    12     6    50 1   
    13     7     8 1   
    14     7    75 1   
    15     7    76 1   
    16     8     9 ar  
    17     8    23 ar  
    18     9    10 ar  
    19     9    77 1   
    20    10    11 ar  
    21    10    49 1   
    22    11    12 ar  
    23    11    78 1   
    24    12    13 1   
    25    12    23 ar  
    26    13    30 1   
    27    13    79 1   
    28    13    80 1   
    29    14    15 1   
    30    14    81 1   
    31    14    82 1   
    32    15    16 ar  
    33    15    18 ar  
    34    16    19 ar  
    35    16    83 1   
    36    17    19 ar  
    37    17    20 ar  
    38    17    84 1   
    39    18    20 ar  
    40    18    45 1   
    41    19    51 1   
    42    20    24 1   
    43    21    22 ar  
    44    21    24 1   
    45    21    28 ar  
    46    22    25 ar  
    47    22    85 1   
    48    23    43 1   
    49    24    86 1   
    50    24    87 1   
    51    25    26 ar  
    52    25    52 1   
    53    26    27 ar  
    54    26    88 1   
    55    27    28 ar  
    56    27    29 1   
    57    28    46 1   
    58    29    36 1   
    59    29    89 1   
    60    29    90 1   
    61    30    31 ar  
    62    30    35 ar  
    63    31    32 ar  
    64    31    42 1   
    65    32    33 ar  
    66    32    54 1   
    67    33    34 ar  
    68    33    91 1   
    69    34    35 ar  
    70    34    48 1   
    71    35    92 1   
    72    36    37 ar  
    73    36    41 ar  
    74    37    38 ar  
    75    37    93 1   
    76    38    39 ar  
    77    38    53 1   
    78    39    40 ar  
    79    39    94 1   
    80    40    41 ar  
    81    40    54 1   
    82    41    47 1   
    83    42    95 1   
    84    43    96 1   
    85    44    97 1   
    86    45    98 1   
    87    46    99 1   
    88    47   100 1   
    89    48    55 1   
    90    48    56 1   
    91    48    57 1   
    92    49    58 1   
    93    49    59 1   
    94    49    60 1   
    95    50    61 1   
    96    50    62 1   
    97    50    63 1   
    98    51    64 1   
    99    51    65 1   
   100    51    66 1   
   101    52    67 1   
   102    52    68 1   
   103    52    69 1   
   104    53    70 1   
   105    53    71 1   
   106    53    72 1   
   107    54   101 1   
   108    54   102 1   
@<TRIPOS>SUBSTRUCTURE
     1 FWQ         1 TEMP              0 ****  ****    0 ROOT
