@<TRIPOS>MOLECULE
FWQ
  102   108     1     0     0
SMALL
No Charge or Current Charge


@<TRIPOS>ATOM
      1 C1           4.1330    -3.7000    -2.1470 ca         1 FWQ       0.020083
      2 C2           3.0660    -2.8640    -2.5350 ca         1 FWQ      -0.173883
      3 C3           1.7700    -3.4150    -2.6740 ca         1 FWQ       0.159267
      4 C4           1.5500    -4.7850    -2.4150 ca         1 FWQ      -0.173883
      5 C5           2.6290    -5.6000    -2.0200 ca         1 FWQ       0.020083
      6 C6           3.9250    -5.0670    -1.8950 ca         1 FWQ      -0.249167
      7 C7           3.3710    -1.3860    -2.8030 c3         1 FWQ       0.046367
      8 C8           3.4510    -0.4970    -1.5500 ca         1 FWQ      -0.173883
      9 C9           3.2290    -1.0290    -0.2580 ca         1 FWQ       0.020083
     10 C10          3.3190    -0.2130     0.8860 ca         1 FWQ      -0.249167
     11 C11          3.6280     1.1500     0.7410 ca         1 FWQ       0.020083
     12 C12          3.8480     1.7050    -0.5330 ca         1 FWQ      -0.173883
     13 C14          4.1840     3.1950    -0.6290 c3         1 FWQ       0.046367
     14 C15          0.1720    -5.4200    -2.5910 c3         1 FWQ       0.046367
     15 C16         -0.7810    -5.1320    -1.4260 ca         1 FWQ      -0.173883
     16 C17         -0.6460    -5.8870    -0.2450 ca         1 FWQ       0.020083
     17 C19         -2.6180    -4.8150     0.6860 ca         1 FWQ       0.020083
     18 C21         -1.8320    -4.1950    -1.5310 ca         1 FWQ       0.159267
     19 C18         -1.5510    -5.7240     0.8200 ca         1 FWQ      -0.249167
     20 C20         -2.7710    -4.0500    -0.4880 ca         1 FWQ      -0.173883
     21 C36         -3.7500    -1.6600    -0.4460 ca         1 FWQ      -0.173883
     22 C37         -3.7140    -1.1390     0.8610 ca         1 FWQ       0.020083
     23 C13          3.7640     0.8780    -1.6730 ca         1 FWQ       0.159267
     24 C29         -4.0060    -3.1600    -0.6340 c3         1 FWQ       0.046367
     25 C38         -3.6180     0.2480     1.0790 ca         1 FWQ      -0.249167
     26 C39         -3.5820     1.1240    -0.0230 ca         1 FWQ       0.020083
     27 C40         -3.6100     0.6260    -1.3440 ca         1 FWQ      -0.173883
     28 C41         -3.6720    -0.7730    -1.5430 ca         1 FWQ       0.159267
     29 C43         -3.6640     1.5760    -2.5510 c3         1 FWQ       0.046367
     30 C44          2.9320     4.0640    -0.5130 ca         1 FWQ      -0.173883
     31 C45          2.0450     4.2300    -1.5990 ca         1 FWQ       0.159267
     32 C46          0.8960     5.0480    -1.4680 ca         1 FWQ      -0.173883
     33 C47          0.6590     5.7080    -0.2450 ca         1 FWQ       0.020083
     34 C48          1.5410     5.5550     0.8410 ca         1 FWQ      -0.249167
     35 C49          2.6710     4.7300     0.7010 ca         1 FWQ       0.020083
     36 C50         -3.2100     3.0180    -2.2920 ca         1 FWQ      -0.173883
     37 C51         -4.1760     3.9750    -1.9200 ca         1 FWQ       0.020083
     38 C52         -3.8240     5.3260    -1.7500 ca         1 FWQ      -0.249167
     39 C53         -2.4880     5.7220    -1.9560 ca         1 FWQ       0.020083
     40 C54         -1.5060     4.7840    -2.3330 ca         1 FWQ      -0.173883
     41 C55         -1.8720     3.4260    -2.4880 ca         1 FWQ       0.159267
     42 O1           2.3180     3.6140    -2.7850 oh         1 FWQ      -0.584267
     43 O2           3.9910     1.4160    -2.9070 oh         1 FWQ      -0.584267
     44 O3           0.7250    -2.6270    -3.0680 oh         1 FWQ      -0.584267
     45 O4          -1.9360    -3.4290    -2.6540 oh         1 FWQ      -0.584267
     46 O5          -3.6700    -1.2800    -2.8080 oh         1 FWQ      -0.584267
     47 O6          -0.9370     2.5020    -2.8500 oh         1 FWQ      -0.584267
     48 S64          1.2560     6.4660     2.4230 s6         1 FWQ       1.264100
     49 S67          3.0790    -0.9410     2.5680 s6         1 FWQ       1.264100
     50 S68          5.3340    -6.1530    -1.3950 s6         1 FWQ       1.264100
     51 S69         -1.3980    -6.7540     2.3470 s6         1 FWQ       1.264100
     52 S70         -3.6360     0.9250     2.7990 s6         1 FWQ       1.264100
     53 S71         -5.1130     6.5630    -1.2770 s6         1 FWQ       1.264100
     54 C72         -0.0840     5.2770    -2.6250 c3         1 FWQ       0.046367
     55 O7          -0.1970     6.6940     2.4040 o          1 FWQ      -0.701867
     56 O8           1.7540     5.5120     3.4250 o          1 FWQ      -0.701867
     57 O9           2.0910     7.6590     2.2160 o          1 FWQ      -0.701867
     58 O10          2.6340     0.2190     3.3550 o          1 FWQ      -0.701867
     59 O11          2.0740    -1.9830     2.3160 o          1 FWQ      -0.701867
     60 O12          4.4370    -1.4250     2.8620 o          1 FWQ      -0.701867
     61 O13          6.4810    -5.4920    -2.0380 o          1 FWQ      -0.701867
     62 O14          5.2760    -6.0430     0.0690 o          1 FWQ      -0.701867
     63 O15          4.9370    -7.4550    -1.9520 o          1 FWQ      -0.701867
     64 O16          0.0440    -7.0370     2.3930 o          1 FWQ      -0.701867
     65 O17         -1.9210    -5.8520     3.3840 o          1 FWQ      -0.701867
     66 O18         -2.2600    -7.8950     2.0050 o          1 FWQ      -0.701867
     67 O19         -5.0680     1.2130     2.9740 o          1 FWQ      -0.701867
     68 O20         -3.1120    -0.1990     3.5880 o          1 FWQ      -0.701867
     69 O21         -2.7630     2.1010     2.6770 o          1 FWQ      -0.701867
     70 O22         -5.1350     6.4100     0.1850 o          1 FWQ      -0.701867
     71 O23         -4.5450     7.8230    -1.7790 o          1 FWQ      -0.701867
     72 O24         -6.2990     6.0570    -1.9860 o          1 FWQ      -0.701867
     73 H1           5.1300    -3.2760    -2.0380 ha         1 FWQ       0.129667
     74 H2           2.4600    -6.6560    -1.8200 ha         1 FWQ       0.129667
     75 H3           4.3300    -1.3300    -3.3340 hc         1 FWQ       0.021117
     76 H4           2.6410    -0.9650    -3.5040 hc         1 FWQ       0.021117
     77 H5           2.9940    -2.0830    -0.1260 ha         1 FWQ       0.129667
     78 H6           3.7060     1.7860     1.6200 ha         1 FWQ       0.129667
     79 H7           4.8920     3.4530     0.1690 hc         1 FWQ       0.021117
     80 H8           4.7250     3.4310    -1.5520 hc         1 FWQ       0.021117
     81 H9          -0.2600    -5.1120    -3.5500 hc         1 FWQ       0.021117
     82 H10          0.2800    -6.5070    -2.6930 hc         1 FWQ       0.021117
     83 H11          0.1570    -6.6180    -0.1660 ha         1 FWQ       0.129667
     84 H12         -3.3450    -4.7180     1.4900 ha         1 FWQ       0.129667
     85 H13         -3.7930    -1.8190     1.7070 ha         1 FWQ       0.129667
     86 H14         -4.4850    -3.3600    -1.5990 hc         1 FWQ       0.021117
     87 H15         -4.7640    -3.4730     0.0940 hc         1 FWQ       0.021117
     88 H16         -3.5520     2.1960     0.1580 ha         1 FWQ       0.129667
     89 H17         -3.0880     1.1630    -3.3870 hc         1 FWQ       0.021117
     90 H18         -4.6970     1.5930    -2.9220 hc         1 FWQ       0.021117
     91 H19         -0.2110     6.3540    -0.1480 ha         1 FWQ       0.129667
     92 H20          3.3600     4.6160     1.5360 ha         1 FWQ       0.129667
     93 H21         -5.2090     3.6650    -1.7730 ha         1 FWQ       0.129667
     94 H22         -2.2110     6.7670    -1.8360 ha         1 FWQ       0.129667
     95 H23          2.9950     2.9110    -2.6150 ho         1 FWQ       0.475167
     96 H24          4.0640     0.6820    -3.5520 ho         1 FWQ       0.475167
     97 H25          1.0600    -1.7080    -3.1310 ho         1 FWQ       0.475167
     98 H26         -1.0080    -3.3090    -2.9800 ho         1 FWQ       0.475167
     99 H27         -3.2380    -2.1690    -2.7500 ho         1 FWQ       0.475167
    100 H28         -1.3650     1.6230    -2.8030 ho         1 FWQ       0.475167
    101 H29         -0.1090     6.3510    -2.8470 hc         1 FWQ       0.021117
    102 H30          0.2690     4.8240    -3.5580 hc         1 FWQ       0.021117
@<TRIPOS>BOND
     1     1     2 ar  
     2     1     6 ar  
     3     1    73 1   
     4     2     3 ar  
     5     2     7 1   
     6     3     4 ar  
     7     3    44 1   
     8     4     5 ar  
     9     4    14 1   
    10     5     6 ar  
    11     5    74 1   
    12     6    50 1   
    13     7     8 1   
    14     7    75 1   
    15     7    76 1   
    16     8     9 ar  
    17     8    23 ar  
    18     9    10 ar  
    19     9    77 1   
    20    10    11 ar  
    21    10    49 1   
    22    11    12 ar  
    23    11    78 1   
    24    12    13 1   
    25    12    23 ar  
    26    13    30 1   
    27    13    79 1   
    28    13    80 1   
    29    14    15 1   
    30    14    81 1   
    31    14    82 1   
    32    15    16 ar  
    33    15    18 ar  
    34    16    19 ar  
    35    16    83 1   
    36    17    19 ar  
    37    17    20 ar  
    38    17    84 1   
    39    18    20 ar  
    40    18    45 1   
    41    19    51 1   
    42    20    24 1   
    43    21    22 ar  
    44    21    24 1   
    45    21    28 ar  
    46    22    25 ar  
    47    22    85 1   
    48    23    43 1   
    49    24    86 1   
    50    24    87 1   
    51    25    26 ar  
    52    25    52 1   
    53    26    27 ar  
    54    26    88 1   
    55    27    28 ar  
    56    27    29 1   
    57    28    46 1   
    58    29    36 1   
    59    29    89 1   
    60    29    90 1   
    61    30    31 ar  
    62    30    35 ar  
    63    31    32 ar  
    64    31    42 1   
    65    32    33 ar  
    66    32    54 1   
    67    33    34 ar  
    68    33    91 1   
    69    34    35 ar  
    70    34    48 1   
    71    35    92 1   
    72    36    37 ar  
    73    36    41 ar  
    74    37    38 ar  
    75    37    93 1   
    76    38    39 ar  
    77    38    53 1   
    78    39    40 ar  
    79    39    94 1   
    80    40    41 ar  
    81    40    54 1   
    82    41    47 1   
    83    42    95 1   
    84    43    96 1   
    85    44    97 1   
    86    45    98 1   
    87    46    99 1   
    88    47   100 1   
    89    48    55 1   
    90    48    56 1   
    91    48    57 1   
    92    49    58 1   
    93    49    59 1   
    94    49    60 1   
    95    50    61 1   
    96    50    62 1   
    97    50    63 1   
    98    51    64 1   
    99    51    65 1   
   100    51    66 1   
   101    52    67 1   
   102    52    68 1   
   103    52    69 1   
   104    53    70 1   
   105    53    71 1   
   106    53    72 1   
   107    54   101 1   
   108    54   102 1   
@<TRIPOS>SUBSTRUCTURE
     1 FWQ         1 TEMP              0 ****  ****    0 ROOT
