@<TRIPOS>MOLECULE
FWR
   41    42     1     0     0
SMALL
No Charge or Current Charge


@<TRIPOS>ATOM
      1 C01          6.0580    -5.9470    30.1050 c3         1 FWR      -0.089100
      2 C02          7.3090    -6.8080    29.8210 c3         1 FWR      -0.014100
      3 C03          7.8320    -6.6590    28.4050 cc         1 FWR      -0.063300
      4 C04          8.7100    -5.6980    27.9270 cd         1 FWR      -0.223500
      5 C06          8.2490    -7.0800    26.1840 cd         1 FWR      -0.064300
      6 C07          8.3290    -7.5880    24.7620 c3         1 FWR      -0.033800
      7 C08          7.5300    -7.5250    27.2820 cc         1 FWR      -0.261600
      8 C09          6.6150    -8.7300    27.1870 c          1 FWR       0.608700
      9 C11          5.7740    -9.2280    28.3630 c3         1 FWR      -0.187100
     10 C12          9.3300    -4.5540    28.5690 cd         1 FWR       0.375500
     11 C13          9.0800    -4.1450    29.8620 cc         1 FWR      -0.257000
     12 C15         10.6560    -2.7770    28.6430 cc         1 FWR       0.456700
     13 C16         11.6490    -1.7450    28.1860 c3         1 FWR      -0.107700
     14 C17         13.1130    -2.1140    28.5350 c3         1 FWR      -0.070400
     15 C18         14.1490    -1.0330    28.1490 c3         1 FWR       0.150800
     16 N05          8.9730    -5.9700    26.5920 na         1 FWR      -0.086000
     17 N19         14.2200    -0.8210    26.6900 n8         1 FWR      -1.005200
     18 N20         10.2280    -3.7620    27.8670 nd         1 FWR      -0.678000
     19 O10          6.5040    -9.3610    26.1420 o          1 FWR      -0.571100
     20 S14         10.0090    -2.7300    30.2610 ss         1 FWR      -0.046400
     21 H1           5.7240    -6.0870    31.1400 hc         1 FWR       0.035367
     22 H2           6.2690    -4.8830    29.9530 hc         1 FWR       0.035367
     23 H3           5.2320    -6.2160    29.4370 hc         1 FWR       0.035367
     24 H4           7.1030    -7.8470    30.0730 hc         1 FWR       0.045700
     25 H5           8.1000    -6.5660    30.5360 hc         1 FWR       0.045700
     26 H6           8.7050    -8.6180    24.7310 hc         1 FWR       0.058367
     27 H7           7.3450    -7.5690    24.2780 hc         1 FWR       0.058367
     28 H8           9.0040    -6.9760    24.1520 hc         1 FWR       0.058367
     29 H9           5.0540    -9.9950    28.0550 hc         1 FWR       0.057367
     30 H10          6.4440    -9.6460    29.1210 hc         1 FWR       0.057367
     31 H11          5.2710    -8.3950    28.8570 hc         1 FWR       0.057367
     32 H12          8.4170    -4.5350    30.6130 h4         1 FWR       0.166000
     33 H13         11.4010    -0.7800    28.6430 hc         1 FWR       0.071200
     34 H14         11.5540    -1.6070    27.1030 hc         1 FWR       0.071200
     35 H15         13.1860    -2.2860    29.6160 hc         1 FWR       0.047700
     36 H16         13.3770    -3.0620    28.0500 hc         1 FWR       0.047700
     37 H17         15.1420    -1.3400    28.5050 h1         1 FWR       0.030700
     38 H18         13.8900    -0.0820    28.6350 h1         1 FWR       0.030700
     39 H19          9.5950    -5.4210    26.0060 hn         1 FWR       0.367000
     40 H20         14.9700    -0.1480    26.4860 hn         1 FWR       0.395500
     41 H22         14.5460    -1.6860    26.2420 hn         1 FWR       0.395500
@<TRIPOS>BOND
     1     1     2 1   
     2     1    21 1   
     3     1    22 1   
     4     1    23 1   
     5     2     3 1   
     6     2    24 1   
     7     2    25 1   
     8     3     4 2   
     9     3     7 1   
    10     4    10 1   
    11     4    16 1   
    12     5     6 1   
    13     5     7 2   
    14     5    16 1   
    15     6    26 1   
    16     6    27 1   
    17     6    28 1   
    18     7     8 1   
    19     8     9 1   
    20     8    19 2   
    21     9    29 1   
    22     9    30 1   
    23     9    31 1   
    24    10    11 2   
    25    10    18 1   
    26    11    20 1   
    27    11    32 1   
    28    12    13 1   
    29    12    18 2   
    30    12    20 1   
    31    13    14 1   
    32    13    33 1   
    33    13    34 1   
    34    14    15 1   
    35    14    35 1   
    36    14    36 1   
    37    15    17 1   
    38    15    37 1   
    39    15    38 1   
    40    16    39 1   
    41    17    40 1   
    42    17    41 1   
@<TRIPOS>SUBSTRUCTURE
     1 FWR         1 TEMP              0 ****  ****    0 ROOT
