@<TRIPOS>MOLECULE
FWR
   41    42     1     0     0
SMALL
abcg2


@<TRIPOS>ATOM
      1 C01          5.9210    -6.0260    30.0600 c3         1 FWR      -0.089100
      2 C02          7.2570    -6.7540    29.8570 c3         1 FWR      -0.014100
      3 C03          7.8030    -6.6140    28.4670 cc         1 FWR      -0.063300
      4 C04          8.6150    -5.5720    28.0570 cd         1 FWR      -0.223500
      5 C06          8.3220    -6.8880    26.2470 cd         1 FWR      -0.064300
      6 C07          8.5050    -7.3060    24.8310 c3         1 FWR      -0.033800
      7 C08          7.6030    -7.4610    27.3120 cc         1 FWR      -0.261600
      8 C09          6.8340    -8.6900    27.1510 c          1 FWR       0.608700
      9 C11          6.1060    -9.3000    28.3270 c3         1 FWR      -0.187100
     10 C12          9.1730    -4.4110    28.7240 cd         1 FWR       0.375500
     11 C13          8.8720    -3.9080    29.9650 cc         1 FWR      -0.257000
     12 C15         10.5610    -2.6580    28.7180 cc         1 FWR       0.456700
     13 C16         11.6340    -1.7270    28.2600 c3         1 FWR      -0.107700
     14 C17         13.0380    -2.3170    28.4650 c3         1 FWR      -0.070400
     15 C18         14.1520    -1.3910    27.9900 c3         1 FWR       0.150800
     16 N05          8.9100    -5.7750    26.7190 na         1 FWR      -0.086000
     17 N19         14.0810    -1.1610    26.5410 n8         1 FWR      -1.005200
     18 N20         10.1310    -3.6810    28.0380 nd         1 FWR      -0.678000
     19 O10          6.7700    -9.2610    26.0590 o          1 FWR      -0.571100
     20 S14          9.8150    -2.5060    30.2790 ss         1 FWR      -0.046400
     21 H1           5.5740    -6.1340    31.0900 hc         1 FWR       0.035367
     22 H2           6.0190    -4.9610    29.8430 hc         1 FWR       0.035367
     23 H3           5.1520    -6.4270    29.3970 hc         1 FWR       0.035367
     24 H4           7.1400    -7.8030    30.1170 hc         1 FWR       0.045700
     25 H5           7.9910    -6.3570    30.5610 hc         1 FWR       0.045700
     26 H6           8.9270    -8.3100    24.7710 hc         1 FWR       0.058367
     27 H7           7.5510    -7.3350    24.3040 hc         1 FWR       0.058367
     28 H8           9.1710    -6.6110    24.3180 hc         1 FWR       0.058367
     29 H9           5.5320   -10.1560    27.9770 hc         1 FWR       0.057367
     30 H10          6.8200    -9.6360    29.0820 hc         1 FWR       0.057367
     31 H11          5.4360    -8.5830    28.8020 hc         1 FWR       0.057367
     32 H12          8.1460    -4.2470    30.6810 h4         1 FWR       0.166000
     33 H13         11.5570    -0.7810    28.7990 hc         1 FWR       0.071200
     34 H14         11.4770    -1.5170    27.2010 hc         1 FWR       0.071200
     35 H15         13.1860    -2.5320    29.5260 hc         1 FWR       0.047700
     36 H16         13.1070    -3.2720    27.9350 hc         1 FWR       0.047700
     37 H17         15.1140    -1.8200    28.3040 h1         1 FWR       0.030700
     38 H18         14.0570    -0.4230    28.4890 h1         1 FWR       0.030700
     39 H19          9.5060    -5.1580    26.1870 hn         1 FWR       0.367000
     40 H20         14.8130    -0.5180    26.2590 hn         1 FWR       0.395500
     41 H22         14.2680    -2.0320    26.0520 hn         1 FWR       0.395500
@<TRIPOS>BOND
     1     1     2 1   
     2     1    21 1   
     3     1    22 1   
     4     1    23 1   
     5     2     3 1   
     6     2    24 1   
     7     2    25 1   
     8     3     4 2   
     9     3     7 1   
    10     4    10 1   
    11     4    16 1   
    12     5     6 1   
    13     5     7 2   
    14     5    16 1   
    15     6    26 1   
    16     6    27 1   
    17     6    28 1   
    18     7     8 1   
    19     8     9 1   
    20     8    19 2   
    21     9    29 1   
    22     9    30 1   
    23     9    31 1   
    24    10    11 2   
    25    10    18 1   
    26    11    20 1   
    27    11    32 1   
    28    12    13 1   
    29    12    18 2   
    30    12    20 1   
    31    13    14 1   
    32    13    33 1   
    33    13    34 1   
    34    14    15 1   
    35    14    35 1   
    36    14    36 1   
    37    15    17 1   
    38    15    37 1   
    39    15    38 1   
    40    16    39 1   
    41    17    40 1   
    42    17    41 1   
@<TRIPOS>SUBSTRUCTURE
     1 FWR         1 TEMP              0 ****  ****    0 ROOT
