@<TRIPOS>MOLECULE
FWS
   54    58     1     0     0
SMALL
No Charge or Current Charge


@<TRIPOS>ATOM
      1 C13         45.7530   166.0060    -1.1530 ca         1 FWS       0.075100
      2 C24         39.6070   159.3740    -6.9240 ca         1 FWS       0.070000
      3 C26         40.6170   157.5450    -5.6590 ca         1 FWS       0.344900
      4 C28         38.4320   158.1080    -5.1960 ca         1 FWS       0.370900
      5 C01         42.8670   164.9080    -7.9610 c3         1 FWS      -0.093100
      6 C02         42.0780   164.1770    -6.8400 c6         1 FWS       0.119700
      7 C03         41.1480   163.0940    -7.4590 c6         1 FWS       0.171800
      8 N04         41.9100   161.9350    -7.9920 n3         1 FWS      -0.733500
      9 C05         42.6800   161.3070    -6.8910 c6         1 FWS       0.171800
     10 C06         43.6380   162.3020    -6.1800 c6         1 FWS       0.102000
     11 N07         43.0130   163.6170    -5.8150 n          1 FWS      -0.428800
     12 C08         43.4860   164.4300    -4.7590 c          1 FWS       0.659100
     13 O09         43.0170   165.5440    -4.5640 o          1 FWS      -0.620100
     14 N10         44.4990   163.8810    -3.9820 ns         1 FWS      -0.161000
     15 C11         45.2180   164.3690    -2.8560 ca         1 FWS      -0.013000
     16 C12         44.9790   165.6340    -2.2600 ca         1 FWS      -0.098000
     17 C14         46.7180   165.1880    -0.6400 ca         1 FWS       0.029100
     18 O15         47.3430   165.7310     0.4360 os         1 FWS      -0.348100
     19 C16         46.7110   167.0570     0.5430 c5         1 FWS       0.370600
     20 O17         45.6450   167.1720    -0.4670 os         1 FWS      -0.345100
     21 C18         46.9830   163.9320    -1.1950 ca         1 FWS      -0.068000
     22 C19         46.2220   163.5280    -2.3130 ca         1 FWS      -0.169000
     23 O21         41.8560   159.7110    -9.2320 o          1 FWS      -0.539000
     24 O22         40.5220   161.6900   -10.0910 o          1 FWS      -0.539000
     25 C23         39.5970   160.4170    -7.9010 ca         1 FWS      -0.305500
     26 C25         40.7160   158.5420    -6.6410 ca         1 FWS      -0.176000
     27 N27         39.4980   157.3210    -4.9410 nb         1 FWS      -0.662000
     28 C29         38.4380   159.1320    -6.1620 ca         1 FWS      -0.126000
     29 C30         37.2780   159.9020    -6.3530 ca         1 FWS      -0.021000
     30 C31         37.2720   160.9230    -7.3080 ca         1 FWS      -0.142000
     31 C32         38.4170   161.1780    -8.0740 ca         1 FWS       0.017000
     32 H2          37.5400   157.9090    -4.6020 h4         1 FWS       0.022100
     33 H3          43.4860   165.7120    -7.5460 hc         1 FWS       0.049367
     34 H4          43.5300   164.2220    -8.5010 hc         1 FWS       0.049367
     35 H5          42.1880   165.3600    -8.6930 hc         1 FWS       0.049367
     36 H6          41.4230   164.9210    -6.3630 h1         1 FWS       0.093700
     37 H7          40.5500   163.5680    -8.2520 h1         1 FWS       0.064200
     38 H8          40.4390   162.7620    -6.6860 h1         1 FWS       0.064200
     39 H9          41.9920   160.9020    -6.1350 h1         1 FWS       0.062200
     40 H10         43.2850   160.4680    -7.2610 h1         1 FWS       0.062200
     41 H11         44.0320   161.7960    -5.2890 h1         1 FWS       0.064700
     42 H12         44.4910   162.5000    -6.8450 h1         1 FWS       0.064700
     43 H13         44.7850   162.9570    -4.2710 hn         1 FWS       0.145000
     44 H14         44.2230   166.3200    -2.6250 ha         1 FWS       0.160000
     45 H15         47.4650   167.8310     0.3580 h2         1 FWS       0.068200
     46 H16         46.2830   167.1800     1.5450 h2         1 FWS       0.068200
     47 H17         47.7530   163.2880    -0.7750 ha         1 FWS       0.135000
     48 H18         46.4140   162.5550    -2.7600 ha         1 FWS       0.114000
     49 H19         41.6650   158.6320    -7.1460 ha         1 FWS       0.149000
     50 H20         36.3840   159.7100    -5.7630 ha         1 FWS       0.123000
     51 H21         36.3750   161.5210    -7.4570 ha         1 FWS       0.128000
     52 H22         38.3740   161.9820    -8.8070 ha         1 FWS       0.141000
     53 S20         40.9990   160.8720    -8.9700 sy         1 FWS       1.184600
     54 H1          41.4690   156.9030    -5.4380 h4         1 FWS       0.025100
@<TRIPOS>BOND
     1     1    16 ar  
     2     1    17 ar  
     3     1    20 1   
     4     2    25 ar  
     5     2    26 ar  
     6     2    28 ar  
     7     3    26 ar  
     8     3    27 ar  
     9     3    54 1   
    10     4    27 ar  
    11     4    28 ar  
    12     4    32 1   
    13     5     6 1   
    14     5    33 1   
    15     5    34 1   
    16     5    35 1   
    17     6     7 1   
    18     6    11 1   
    19     6    36 1   
    20     7     8 1   
    21     7    37 1   
    22     7    38 1   
    23     8     9 1   
    24     8    53 1   
    25     9    10 1   
    26     9    39 1   
    27     9    40 1   
    28    10    11 1   
    29    10    41 1   
    30    10    42 1   
    31    11    12 1   
    32    12    13 2   
    33    12    14 1   
    34    14    15 1   
    35    14    43 1   
    36    15    16 ar  
    37    15    22 ar  
    38    16    44 1   
    39    17    18 1   
    40    17    21 ar  
    41    18    19 1   
    42    19    20 1   
    43    19    45 1   
    44    19    46 1   
    45    21    22 ar  
    46    21    47 1   
    47    22    48 1   
    48    23    53 2   
    49    24    53 2   
    50    25    31 ar  
    51    25    53 1   
    52    26    49 1   
    53    28    29 ar  
    54    29    30 ar  
    55    29    50 1   
    56    30    31 ar  
    57    30    51 1   
    58    31    52 1   
@<TRIPOS>SUBSTRUCTURE
     1 FWS         1 TEMP              0 ****  ****    0 ROOT
