@<TRIPOS>MOLECULE
FWS
   54    58     1     0     0
SMALL
abcg2


@<TRIPOS>ATOM
      1 C13         45.5470   165.5880    -1.4870 ca         1 FWS       0.075100
      2 C24         39.9970   159.5310    -6.4890 ca         1 FWS       0.070000
      3 C26         41.3310   157.7340    -5.5970 ca         1 FWS       0.344900
      4 C28         39.3940   158.2370    -4.5080 ca         1 FWS       0.370900
      5 C01         42.9190   164.9680    -8.7070 c3         1 FWS      -0.093100
      6 C02         42.4190   164.4730    -7.3540 c6         1 FWS       0.119700
      7 C03         41.2950   163.4380    -7.4700 c6         1 FWS       0.171800
      8 N04         41.8270   162.1690    -7.9950 n3         1 FWS      -0.733500
      9 C05         42.8910   161.6010    -7.1490 c6         1 FWS       0.171800
     10 C06         44.0050   162.6340    -7.0340 c6         1 FWS       0.102000
     11 N07         43.4960   163.9030    -6.5330 n          1 FWS      -0.428800
     12 C08         43.7160   164.4280    -5.2850 c          1 FWS       0.659100
     13 O09         43.2760   165.5310    -4.9570 o          1 FWS      -0.620100
     14 N10         44.4750   163.6590    -4.4290 ns         1 FWS      -0.161000
     15 C11         44.8420   164.0220    -3.1170 ca         1 FWS      -0.013000
     16 C12         45.1730   165.3500    -2.7880 ca         1 FWS      -0.098000
     17 C14         45.6240   164.5850    -0.5310 ca         1 FWS       0.029100
     18 O15         46.0690   165.1140     0.6590 os         1 FWS      -0.348100
     19 C16         46.0220   166.5380     0.4810 c5         1 FWS       0.370600
     20 O17         45.9380   166.7810    -0.9340 os         1 FWS      -0.345100
     21 C18         45.3250   163.2800    -0.8410 ca         1 FWS      -0.068000
     22 C19         44.9210   163.0130    -2.1560 ca         1 FWS      -0.169000
     23 O21         41.4930   160.0210    -9.2060 o          1 FWS      -0.539000
     24 O22         39.9550   161.9340    -9.5990 o          1 FWS      -0.539000
     25 C23         39.6600   160.5870    -7.3900 ca         1 FWS      -0.305500
     26 C25         41.1450   158.7040    -6.5460 ca         1 FWS      -0.176000
     27 N27         40.4720   157.4920    -4.5730 nb         1 FWS      -0.662000
     28 C29         39.0830   159.2700    -5.4260 ca         1 FWS      -0.126000
     29 C30         37.8940   160.0200    -5.2900 ca         1 FWS      -0.021000
     30 C31         37.6000   161.0150    -6.1830 ca         1 FWS      -0.142000
     31 C32         38.4930   161.3000    -7.2320 ca         1 FWS       0.017000
     32 H2          38.7000   158.0440    -3.6950 h4         1 FWS       0.022100
     33 H3          43.7210   165.6930    -8.5680 hc         1 FWS       0.049367
     34 H4          43.2880   164.1560    -9.3330 hc         1 FWS       0.049367
     35 H5          42.1010   165.4550    -9.2400 hc         1 FWS       0.049367
     36 H6          42.0200   165.3150    -6.7960 h1         1 FWS       0.093700
     37 H7          40.5290   163.8040    -8.1470 h1         1 FWS       0.064200
     38 H8          40.8510   163.2760    -6.4810 h1         1 FWS       0.064200
     39 H9          42.5030   161.3570    -6.1540 h1         1 FWS       0.062200
     40 H10         43.2770   160.7000    -7.6180 h1         1 FWS       0.062200
     41 H11         44.8050   162.2520    -6.4070 h1         1 FWS       0.064700
     42 H12         44.4390   162.8000    -8.0220 h1         1 FWS       0.064700
     43 H13         44.5320   162.6730    -4.6190 hn         1 FWS       0.145000
     44 H14         45.1310   166.1400    -3.5190 ha         1 FWS       0.160000
     45 H15         46.9320   166.9840     0.8730 h2         1 FWS       0.068200
     46 H16         45.1260   166.9360     0.9680 h2         1 FWS       0.068200
     47 H17         45.3900   162.4900    -0.1050 ha         1 FWS       0.135000
     48 H18         44.6600   161.9990    -2.4340 ha         1 FWS       0.114000
     49 H19         41.8700   158.8170    -7.3340 ha         1 FWS       0.149000
     50 H20         37.2240   159.7910    -4.4710 ha         1 FWS       0.123000
     51 H21         36.6890   161.5920    -6.0920 ha         1 FWS       0.128000
     52 H22         38.2580   162.0910    -7.9290 ha         1 FWS       0.141000
     53 S20         40.7470   161.1420    -8.6890 sy         1 FWS       1.184600
     54 H1          42.2090   157.1010    -5.6380 h4         1 FWS       0.025100
@<TRIPOS>BOND
     1     1    16 ar  
     2     1    17 ar  
     3     1    20 1   
     4     2    25 ar  
     5     2    26 ar  
     6     2    28 ar  
     7     3    26 ar  
     8     3    27 ar  
     9     3    54 1   
    10     4    27 ar  
    11     4    28 ar  
    12     4    32 1   
    13     5     6 1   
    14     5    33 1   
    15     5    34 1   
    16     5    35 1   
    17     6     7 1   
    18     6    11 1   
    19     6    36 1   
    20     7     8 1   
    21     7    37 1   
    22     7    38 1   
    23     8     9 1   
    24     8    53 1   
    25     9    10 1   
    26     9    39 1   
    27     9    40 1   
    28    10    11 1   
    29    10    41 1   
    30    10    42 1   
    31    11    12 1   
    32    12    13 2   
    33    12    14 1   
    34    14    15 1   
    35    14    43 1   
    36    15    16 ar  
    37    15    22 ar  
    38    16    44 1   
    39    17    18 1   
    40    17    21 ar  
    41    18    19 1   
    42    19    20 1   
    43    19    45 1   
    44    19    46 1   
    45    21    22 ar  
    46    21    47 1   
    47    22    48 1   
    48    23    53 2   
    49    24    53 2   
    50    25    31 ar  
    51    25    53 1   
    52    26    49 1   
    53    28    29 ar  
    54    29    30 ar  
    55    29    50 1   
    56    30    31 ar  
    57    30    51 1   
    58    31    52 1   
@<TRIPOS>SUBSTRUCTURE
     1 FWS         1 TEMP              0 ****  ****    0 ROOT
