@<TRIPOS>MOLECULE
FWU
   62    65     1     0     0
SMALL
bcc


@<TRIPOS>ATOM
      1 C20          4.3010    36.0470    33.3840 cp         1 FWU      -0.024000
      2 C21          5.4110    35.3280    34.0470 cp         1 FWU      -0.041000
      3 C22          5.2610    34.7790    35.3200 ca         1 FWU      -0.107500
      4 C23          6.2980    34.0710    35.9080 ca         1 FWU      -0.131500
      5 C24          7.5020    33.9060    35.2350 ca         1 FWU      -0.121000
      6 C25          7.6600    34.4480    33.9680 ca         1 FWU      -0.131500
      7 C26          6.6200    35.1520    33.3770 ca         1 FWU      -0.107500
      8 C11         -4.4350    46.1860    28.5000 ca         1 FWU      -0.162000
      9 C10         -3.6670    46.3800    29.6640 ca         1 FWU       0.001000
     10 C12         -5.1060    45.0120    28.3150 ca         1 FWU      -0.044000
     11 C13         -5.0370    43.9930    29.2900 ca         1 FWU      -0.190300
     12 C14         -4.2750    44.1700    30.4700 ca         1 FWU       0.074000
     13 C15         -4.2690    43.0930    31.3850 ca         1 FWU      -0.241300
     14 C16         -4.9820    41.9630    31.0940 ca         1 FWU       0.407200
     15 C17         -5.7300    42.7720    29.1130 ca         1 FWU       0.435200
     16 C18          2.7820    36.2300    31.4990 ca         1 FWU      -0.127000
     17 C19          3.8180    35.5880    32.1600 ca         1 FWU      -0.115000
     18 O1          -3.3190    45.4070    33.2500 o          1 FWU      -0.616800
     19 S           -2.5650    45.7170    32.0440 sy         1 FWU       1.323200
     20 O           -2.0260    47.0610    31.8900 o          1 FWU      -0.616800
     21 C9          -3.5810    45.4030    30.6190 ca         1 FWU      -0.269500
     22 N2          -5.7110    41.7910    29.9720 nb         1 FWU      -0.665000
     23 N1          -1.3940    44.5920    31.9200 n7         1 FWU      -0.889100
     24 C8          -0.3070    44.6990    30.9510 c3         1 FWU       0.230800
     25 C7          -0.5480    43.8880    29.6840 c3         1 FWU      -0.086400
     26 C6          -0.8000    42.4030    29.9210 c3         1 FWU      -0.070400
     27 C5           0.3580    41.6720    30.5890 c3         1 FWU      -0.079400
     28 C4           0.1200    40.1720    30.6630 c3         1 FWU       0.157800
     29 N            1.2240    39.4890    31.3120 n7         1 FWU      -0.806200
     30 C2           2.1870    37.3610    32.0440 ca         1 FWU      -0.080300
     31 C1           2.6660    37.8420    33.2580 ca         1 FWU      -0.102000
     32 C            3.7010    37.1910    33.9090 ca         1 FWU       0.035400
     33 CL           4.2760    37.8740    35.3990 cl         1 FWU      -0.109400
     34 H1           4.3220    34.8900    35.8480 ha         1 FWU       0.134500
     35 H2           6.1640    33.6430    36.8940 ha         1 FWU       0.131500
     36 H3           8.3120    33.3550    35.6970 ha         1 FWU       0.131000
     37 H4           8.5950    34.3260    33.4370 ha         1 FWU       0.131500
     38 H5           6.7520    35.5760    32.3890 ha         1 FWU       0.134500
     39 H6          -4.4830    46.9740    27.7610 ha         1 FWU       0.143000
     40 H7          -3.1340    47.3130    29.7880 ha         1 FWU       0.163000
     41 H8          -5.6970    44.8480    27.4230 ha         1 FWU       0.138000
     42 H9          -3.7230    43.1330    32.3140 ha         1 FWU       0.156000
     43 H10         -4.9810    41.1330    31.7910 h4         1 FWU       0.023100
     44 H11         -6.3160    42.6350    28.2090 h4         1 FWU       0.019100
     45 H12          2.4350    35.8420    30.5490 ha         1 FWU       0.133000
     46 H13          4.2620    34.7030    31.7230 ha         1 FWU       0.139000
     47 H14         -1.2300    44.0710    32.7700 hn         1 FWU       0.452800
     48 H15          0.5980    44.3650    31.4580 h1         1 FWU       0.054700
     49 H16         -0.1360    45.7460    30.6960 h1         1 FWU       0.054700
     50 H17         -1.3910    44.3140    29.1350 hc         1 FWU       0.047200
     51 H18          0.3290    44.0150    29.0430 hc         1 FWU       0.047200
     52 H19         -1.7050    42.2800    30.5220 hc         1 FWU       0.044200
     53 H20         -1.0130    41.9320    28.9570 hc         1 FWU       0.044200
     54 H21          1.2810    41.8660    30.0320 hc         1 FWU       0.043700
     55 H22          0.5220    42.0510    31.6020 hc         1 FWU       0.043700
     56 H23         -0.7900    39.9760    31.2390 h1         1 FWU       0.030200
     57 H24         -0.0720    39.7860    29.6480 h1         1 FWU       0.030200
     58 H25          2.0790    39.6980    30.8090 hn         1 FWU       0.354800
     59 H27          0.1170    37.8400    31.8850 h1         1 FWU       0.039200
     60 H28          0.9190    37.6090    30.3450 h1         1 FWU       0.039200
     61 H29          2.2350    38.7350    33.6920 ha         1 FWU       0.162000
     62 C3           1.0460    38.0510    31.3450 c3         1 FWU       0.205100
@<TRIPOS>BOND
     1     1     2 1   
     2     1    17 ar  
     3     1    32 ar  
     4     2     3 ar  
     5     2     7 ar  
     6     3     4 ar  
     7     3    34 1   
     8     4     5 ar  
     9     4    35 1   
    10     5     6 ar  
    11     5    36 1   
    12     6     7 ar  
    13     6    37 1   
    14     7    38 1   
    15     8     9 ar  
    16     8    10 ar  
    17     8    39 1   
    18     9    21 ar  
    19     9    40 1   
    20    10    11 ar  
    21    10    41 1   
    22    11    12 ar  
    23    11    15 ar  
    24    12    13 ar  
    25    12    21 ar  
    26    13    14 ar  
    27    13    42 1   
    28    14    22 ar  
    29    14    43 1   
    30    15    22 ar  
    31    15    44 1   
    32    16    17 ar  
    33    16    30 ar  
    34    16    45 1   
    35    17    46 1   
    36    18    19 2   
    37    19    20 2   
    38    19    21 1   
    39    19    23 1   
    40    23    24 1   
    41    23    47 1   
    42    24    25 1   
    43    24    48 1   
    44    24    49 1   
    45    25    26 1   
    46    25    50 1   
    47    25    51 1   
    48    26    27 1   
    49    26    52 1   
    50    26    53 1   
    51    27    28 1   
    52    27    54 1   
    53    27    55 1   
    54    28    29 1   
    55    28    56 1   
    56    28    57 1   
    57    29    58 1   
    58    29    62 1   
    59    30    31 ar  
    60    30    62 1   
    61    31    32 ar  
    62    31    61 1   
    63    32    33 1   
    64    59    62 1   
    65    60    62 1   
@<TRIPOS>SUBSTRUCTURE
     1 FWU         1 TEMP              0 ****  ****    0 ROOT
