@<TRIPOS>MOLECULE
FWU
   62    65     1     0     0
SMALL
No Charge or Current Charge


@<TRIPOS>ATOM
      1 C20          4.0090    36.0760    33.2020 cp         1 FWU      -0.024000
      2 C21          5.1170    35.3110    33.8520 cp         1 FWU      -0.041000
      3 C22          4.8560    34.3310    34.8420 ca         1 FWU      -0.089500
      4 C23          5.9040    33.6050    35.4350 ca         1 FWU      -0.113500
      5 C24          7.2320    33.8420    35.0430 ca         1 FWU      -0.103000
      6 C25          7.5110    34.8010    34.0560 ca         1 FWU      -0.113500
      7 C26          6.4620    35.5250    33.4640 ca         1 FWU      -0.089500
      8 C11         -4.2470    44.8940    28.0620 ca         1 FWU      -0.144000
      9 C10         -3.6000    45.6000    29.0880 ca         1 FWU       0.019000
     10 C12         -4.8130    43.6390    28.3190 ca         1 FWU      -0.026000
     11 C13         -4.7320    43.0860    29.6080 ca         1 FWU      -0.125000
     12 C14         -4.0850    43.7850    30.6540 ca         1 FWU       0.074000
     13 C15         -4.0410    43.1440    31.9120 ca         1 FWU      -0.158000
     14 C16         -4.6280    41.8800    32.0730 ca         1 FWU       0.341900
     15 C17         -5.2960    41.8210    29.8650 ca         1 FWU       0.369900
     16 C18          2.8890    36.8040    31.1380 ca         1 FWU      -0.109000
     17 C19          3.9160    36.1020    31.7890 ca         1 FWU      -0.097000
     18 O1          -3.4870    46.1170    32.8460 o          1 FWU      -0.546000
     19 S           -2.6570    46.0450    31.6430 sy         1 FWU       1.181600
     20 O           -2.0620    47.2490    31.0590 o          1 FWU      -0.546000
     21 C9          -3.5090    45.0590    30.3900 ca         1 FWU      -0.269500
     22 N2          -5.2500    41.2200    31.0740 nb         1 FWU      -0.665000
     23 N1          -1.3930    45.0530    32.0930 n7         1 FWU      -0.944300
     24 C8          -0.1080    45.1320    31.3650 c3         1 FWU       0.230800
     25 C7          -0.1650    44.4780    29.9610 c3         1 FWU      -0.086400
     26 C6          -0.5440    42.9740    29.9330 c3         1 FWU      -0.070400
     27 C5           0.4760    42.0430    30.6280 c3         1 FWU      -0.079400
     28 C4           0.0810    40.5560    30.5330 c3         1 FWU       0.157800
     29 N            1.0880    39.7170    31.2060 n7         1 FWU      -0.861400
     30 C2           1.9260    37.5070    31.8860 ca         1 FWU      -0.080300
     31 C1           2.0110    37.5020    33.2910 ca         1 FWU      -0.084000
     32 C            3.0370    36.8000    33.9470 ca         1 FWU       0.127000
     33 Cl           3.0930    36.8970    35.7090 cl         1 FWU      -0.201000
     34 H1           3.8320    34.1270    35.1440 ha         1 FWU       0.116500
     35 H2           5.6860    32.8570    36.1940 ha         1 FWU       0.113500
     36 H3           8.0440    33.2800    35.5020 ha         1 FWU       0.113000
     37 H4           8.5380    34.9830    33.7480 ha         1 FWU       0.113500
     38 H5           6.6900    36.2660    32.7010 ha         1 FWU       0.116500
     39 H6          -4.3080    45.3240    27.0650 ha         1 FWU       0.125000
     40 H7          -3.1700    46.5740    28.8590 ha         1 FWU       0.145000
     41 H8          -5.3110    43.0980    27.5160 ha         1 FWU       0.120000
     42 H9          -3.5560    43.5860    32.7730 ha         1 FWU       0.138000
     43 H10         -4.5970    41.3760    33.0390 h4         1 FWU       0.023100
     44 H11         -5.8000    41.2660    29.0740 h4         1 FWU       0.019100
     45 H12          2.8410    36.8010    30.0510 ha         1 FWU       0.115000
     46 H13          4.6480    35.5590    31.1940 ha         1 FWU       0.121000
     47 H14         -1.2420    45.4200    33.0310 hn         1 FWU       0.508000
     48 H15          0.6710    44.6170    31.9430 h1         1 FWU       0.054700
     49 H16          0.2280    46.1730    31.2610 h1         1 FWU       0.054700
     50 H17         -0.8650    45.0340    29.3290 hc         1 FWU       0.047200
     51 H18          0.8170    44.5970    29.4890 hc         1 FWU       0.047200
     52 H19         -1.5270    42.8330    30.3960 hc         1 FWU       0.044200
     53 H20         -0.6490    42.6640    28.8860 hc         1 FWU       0.044200
     54 H21          1.4640    42.1870    30.1740 hc         1 FWU       0.043700
     55 H22          0.5600    42.3180    31.6870 hc         1 FWU       0.043700
     56 H23         -0.9040    40.4170    30.9980 h1         1 FWU       0.030200
     57 H24         -0.0050    40.2740    29.4740 h1         1 FWU       0.030200
     58 H25          1.9910    39.8650    30.7420 hn         1 FWU       0.410000
     59 H27         -0.1410    38.0570    31.6980 h1         1 FWU       0.039200
     60 H28          0.7140    37.9100    30.1550 h1         1 FWU       0.039200
     61 H29          1.2820    38.0560    33.8760 ha         1 FWU       0.144000
     62 C3           0.8090    38.2710    31.1890 c3         1 FWU       0.205100
@<TRIPOS>BOND
     1     1     2 1   
     2     1    17 ar  
     3     1    32 ar  
     4     2     3 ar  
     5     2     7 ar  
     6     3     4 ar  
     7     3    34 1   
     8     4     5 ar  
     9     4    35 1   
    10     5     6 ar  
    11     5    36 1   
    12     6     7 ar  
    13     6    37 1   
    14     7    38 1   
    15     8     9 ar  
    16     8    10 ar  
    17     8    39 1   
    18     9    21 ar  
    19     9    40 1   
    20    10    11 ar  
    21    10    41 1   
    22    11    12 ar  
    23    11    15 ar  
    24    12    13 ar  
    25    12    21 ar  
    26    13    14 ar  
    27    13    42 1   
    28    14    22 ar  
    29    14    43 1   
    30    15    22 ar  
    31    15    44 1   
    32    16    17 ar  
    33    16    30 ar  
    34    16    45 1   
    35    17    46 1   
    36    18    19 2   
    37    19    20 2   
    38    19    21 1   
    39    19    23 1   
    40    23    24 1   
    41    23    47 1   
    42    24    25 1   
    43    24    48 1   
    44    24    49 1   
    45    25    26 1   
    46    25    50 1   
    47    25    51 1   
    48    26    27 1   
    49    26    52 1   
    50    26    53 1   
    51    27    28 1   
    52    27    54 1   
    53    27    55 1   
    54    28    29 1   
    55    28    56 1   
    56    28    57 1   
    57    29    58 1   
    58    29    62 1   
    59    30    31 ar  
    60    30    62 1   
    61    31    32 ar  
    62    31    61 1   
    63    32    33 1   
    64    59    62 1   
    65    60    62 1   
@<TRIPOS>SUBSTRUCTURE
     1 FWU         1 TEMP              0 ****  ****    0 ROOT
