@<TRIPOS>MOLECULE
FWV
   48    51     1     0     0
SMALL
abcg2


@<TRIPOS>ATOM
      1 C10         -1.1850     2.1990     0.0790 c          1 FWV       0.647100
      2 N12         -0.3940     2.7090     1.0770 n          1 FWV      -0.387800
      3 C13          0.0110     1.9540     2.2480 c6         1 FWV       0.085000
      4 C17          0.6730     3.6130     0.6850 c6         1 FWV       0.085000
      5 C21          3.5660     0.0730    -0.1740 ca         1 FWV      -0.295500
      6 C22          2.9830    -1.2250    -0.0770 ca         1 FWV       0.072000
      7 C24          2.0420    -3.1490     1.0180 ca         1 FWV       0.340900
      8 C26          2.1750    -3.2100    -1.2400 ca         1 FWV       0.375900
      9 C28          3.1320    -1.3640    -2.5330 ca         1 FWV      -0.018000
     10 C02         -2.9540    -1.6180    -1.9070 ca         1 FWV       0.128000
     11 C03         -4.0310    -1.0310    -2.5510 ca         1 FWV      -0.101000
     12 C04         -4.4010     0.2630    -2.2170 ca         1 FWV      -0.089000
     13 C05         -3.7100     0.9630    -1.2430 ca         1 FWV      -0.082000
     14 C06         -2.6250     0.3850    -0.5970 ca         1 FWV      -0.018000
     15 C07         -2.2420    -0.9130    -0.9420 ca         1 FWV       0.085000
     16 CL08        -0.8770    -1.6320    -0.1770 cl         1 FWV      -0.177000
     17 N09         -1.9190     1.0830     0.3930 ns         1 FWV      -0.174000
     18 O11         -1.2630     2.7190    -1.0220 o          1 FWV      -0.611100
     19 C14          1.2200     1.0890     1.9360 c6         1 FWV       0.149800
     20 N15          2.3020     1.9280     1.4090 n3         1 FWV      -0.705500
     21 C16          1.9200     2.8270     0.3100 c6         1 FWV       0.149800
     22 S18          3.7680     1.1710     1.2190 sy         1 FWV       1.141600
     23 O19          4.0190     0.4010     2.4250 o          1 FWV      -0.530500
     24 O20          4.7210     2.1960     0.8310 o          1 FWV      -0.530500
     25 C23          2.6000    -1.9040     1.1040 ca         1 FWV      -0.179000
     26 N25          1.8210    -3.8080    -0.1380 nb         1 FWV      -0.661000
     27 C27          2.7650    -1.9250    -1.2930 ca         1 FWV      -0.124000
     28 C29          3.7120    -0.1300    -2.5840 ca         1 FWV      -0.143000
     29 C30          3.9250     0.5900    -1.3960 ca         1 FWV       0.016000
     30 H1           0.2550     2.6680     3.0350 h1         1 FWV       0.074950
     31 H2          -0.7910     1.3400     2.6510 h1         1 FWV       0.074950
     32 H3           0.3700     4.2260    -0.1580 h1         1 FWV       0.074950
     33 H4           0.8800     4.2800     1.5240 h1         1 FWV       0.074950
     34 H5           1.7530    -3.6680     1.9240 h4         1 FWV       0.024100
     35 H6           2.0060    -3.7390    -2.1730 h4         1 FWV       0.022100
     36 H7           2.9500    -1.9270    -3.4390 ha         1 FWV       0.123000
     37 H8          -4.5750    -1.5850    -3.3030 ha         1 FWV       0.135000
     38 H9          -5.2440     0.7210    -2.7150 ha         1 FWV       0.127000
     39 H10         -4.0180     1.9620    -0.9670 ha         1 FWV       0.139000
     40 H11         -1.7510     0.5880     1.2530 hn         1 FWV       0.160000
     41 H12          1.5520     0.6050     2.8520 h1         1 FWV       0.067700
     42 H13          0.9300     0.3090     1.2220 h1         1 FWV       0.067700
     43 H14          1.7230     2.2700    -0.6140 h1         1 FWV       0.067700
     44 H15          2.7320     3.5260     0.1220 h1         1 FWV       0.067700
     45 H16          2.7500    -1.4760     2.0810 ha         1 FWV       0.150000
     46 H17          4.0040     0.3080    -3.5280 ha         1 FWV       0.127000
     47 H18          4.3800     1.5680    -1.4630 ha         1 FWV       0.141000
     48 CL01        -2.4880    -3.2220    -2.3290 cl         1 FWV      -0.168000
@<TRIPOS>BOND
     1     1     2 1   
     2     1    17 1   
     3     1    18 2   
     4     2     3 1   
     5     2     4 1   
     6     3    19 1   
     7     3    30 1   
     8     3    31 1   
     9     4    21 1   
    10     4    32 1   
    11     4    33 1   
    12     5     6 ar  
    13     5    22 1   
    14     5    29 ar  
    15     6    25 ar  
    16     6    27 ar  
    17     7    25 ar  
    18     7    26 ar  
    19     7    34 1   
    20     8    26 ar  
    21     8    27 ar  
    22     8    35 1   
    23     9    27 ar  
    24     9    28 ar  
    25     9    36 1   
    26    10    11 ar  
    27    10    15 ar  
    28    10    48 1   
    29    11    12 ar  
    30    11    37 1   
    31    12    13 ar  
    32    12    38 1   
    33    13    14 ar  
    34    13    39 1   
    35    14    15 ar  
    36    14    17 1   
    37    15    16 1   
    38    17    40 1   
    39    19    20 1   
    40    19    41 1   
    41    19    42 1   
    42    20    21 1   
    43    20    22 1   
    44    21    43 1   
    45    21    44 1   
    46    22    23 2   
    47    22    24 2   
    48    25    45 1   
    49    28    29 ar  
    50    28    46 1   
    51    29    47 1   
@<TRIPOS>SUBSTRUCTURE
     1 FWV         1 TEMP              0 ****  ****    0 ROOT
