@<TRIPOS>MOLECULE
FWV
   48    51     1     0     0
SMALL
No Charge or Current Charge


@<TRIPOS>ATOM
      1 C10         -1.8370     1.7080    -0.7660 c          1 FWV       0.647100
      2 N12         -0.5350     1.5250    -0.2430 n          1 FWV      -0.387800
      3 C13         -0.2620     0.5860     0.8950 c6         1 FWV       0.085000
      4 C17          0.5070     2.5710    -0.4820 c6         1 FWV       0.085000
      5 C21          4.5000     0.4030     0.3230 ca         1 FWV      -0.295500
      6 C22          4.4740    -1.0100     0.1110 ca         1 FWV       0.072000
      7 C24          3.8460    -3.3100     0.6420 ca         1 FWV       0.340900
      8 C26          5.1350    -2.9420    -1.2320 ca         1 FWV       0.375900
      9 C28          5.8410    -0.7210    -1.9080 ca         1 FWV      -0.018000
     10 C02         -6.2630    -0.5710    -0.1400 ca         1 FWV       0.128000
     11 C03         -6.9450     0.2380    -1.0610 ca         1 FWV      -0.101000
     12 C04         -6.2580     1.2500    -1.7490 ca         1 FWV      -0.089000
     13 C05         -4.8870     1.4580    -1.5180 ca         1 FWV      -0.082000
     14 C06         -4.1850     0.6510    -0.5910 ca         1 FWV      -0.018000
     15 C07         -4.8860    -0.3680     0.0960 ca         1 FWV       0.085000
     16 Cl08        -4.0290    -1.3910     1.2590 cl         1 FWV      -0.177000
     17 N09         -2.7960     0.8110    -0.3140 ns         1 FWV      -0.174000
     18 O11         -2.0740     2.6060    -1.5640 o          1 FWV      -0.611100
     19 C14          1.2340     0.2640     1.1500 c6         1 FWV       0.149800
     20 N15          2.0820     1.4780     1.1480 n3         1 FWV      -0.705500
     21 C16          1.9630     2.1450    -0.1710 c6         1 FWV       0.149800
     22 S18          3.6890     1.2740     1.7010 sy         1 FWV       1.141600
     23 O19          3.6160     0.4180     2.8890 o          1 FWV      -0.530500
     24 O20          4.2340     2.6320     1.8170 o          1 FWV      -0.530500
     25 C23          3.8080    -1.9400     0.9430 ca         1 FWV      -0.179000
     26 N25          4.4960    -3.8160    -0.4250 nb         1 FWV      -0.661000
     27 C27          5.1510    -1.5520    -1.0100 ca         1 FWV      -0.124000
     28 C29          5.8630     0.6610    -1.6990 ca         1 FWV      -0.143000
     29 C30          5.2010     1.2180    -0.5970 ca         1 FWV       0.016000
     30 H1          -0.6770     1.0310     1.8110 h1         1 FWV       0.074950
     31 H2          -0.7810    -0.3690     0.7330 h1         1 FWV       0.074950
     32 H3           0.4630     2.9070    -1.5280 h1         1 FWV       0.074950
     33 H4           0.2630     3.4410     0.1440 h1         1 FWV       0.074950
     34 H5           3.3350    -4.0290     1.2800 h4         1 FWV       0.024100
     35 H6           5.6510    -3.3740    -2.0890 h4         1 FWV       0.022100
     36 H7           6.3590    -1.1450    -2.7670 ha         1 FWV       0.123000
     37 H8          -8.0060     0.0800    -1.2420 ha         1 FWV       0.135000
     38 H9          -6.7880     1.8770    -2.4640 ha         1 FWV       0.127000
     39 H10         -4.3930     2.2480    -2.0720 ha         1 FWV       0.139000
     40 H11         -2.4420     0.1330     0.3470 hn         1 FWV       0.160000
     41 H12          1.2980    -0.2640     2.1120 h1         1 FWV       0.067700
     42 H13          1.5720    -0.4380     0.3730 h1         1 FWV       0.067700
     43 H14          2.3080     1.4750    -0.9720 h1         1 FWV       0.067700
     44 H15          2.5930     3.0450    -0.2140 h1         1 FWV       0.067700
     45 H16          3.2510    -1.6530     1.8220 ha         1 FWV       0.150000
     46 H17          6.3960     1.3060    -2.3940 ha         1 FWV       0.127000
     47 H18          5.2390     2.2980    -0.4680 ha         1 FWV       0.141000
     48 Cl01        -7.1560    -1.8350     0.7060 cl         1 FWV      -0.168000
@<TRIPOS>BOND
     1     1     2 1   
     2     1    17 1   
     3     1    18 2   
     4     2     3 1   
     5     2     4 1   
     6     3    19 1   
     7     3    30 1   
     8     3    31 1   
     9     4    21 1   
    10     4    32 1   
    11     4    33 1   
    12     5     6 ar  
    13     5    22 1   
    14     5    29 ar  
    15     6    25 ar  
    16     6    27 ar  
    17     7    25 ar  
    18     7    26 ar  
    19     7    34 1   
    20     8    26 ar  
    21     8    27 ar  
    22     8    35 1   
    23     9    27 ar  
    24     9    28 ar  
    25     9    36 1   
    26    10    11 ar  
    27    10    15 ar  
    28    10    48 1   
    29    11    12 ar  
    30    11    37 1   
    31    12    13 ar  
    32    12    38 1   
    33    13    14 ar  
    34    13    39 1   
    35    14    15 ar  
    36    14    17 1   
    37    15    16 1   
    38    17    40 1   
    39    19    20 1   
    40    19    41 1   
    41    19    42 1   
    42    20    21 1   
    43    20    22 1   
    44    21    43 1   
    45    21    44 1   
    46    22    23 2   
    47    22    24 2   
    48    25    45 1   
    49    28    29 ar  
    50    28    46 1   
    51    29    47 1   
@<TRIPOS>SUBSTRUCTURE
     1 FWV         1 TEMP              0 ****  ****    0 ROOT
