@<TRIPOS>MOLECULE
FWW
   98   103     1     0     0
SMALL
No Charge or Current Charge


@<TRIPOS>ATOM
      1 C13          9.0650    -1.6570    -1.6040 ca         1 FWW      -0.039000
      2 C15          6.5530    -1.9330    -1.6160 c          1 FWW       0.632700
      3 C17          4.0940    -2.1100    -1.5670 c5         1 FWW       0.025700
      4 C21          2.8880    -1.2120    -1.1910 c          1 FWW       0.549000
      5 C24          0.2560    -0.6120     0.3210 ca         1 FWW      -0.104500
      6 C26         -2.1480    -0.9200    -0.0550 ca         1 FWW      -0.146600
      7 C02         18.1540     3.9280     2.0660 ca         1 FWW       0.154100
      8 C03         18.3140     2.5510     1.8480 ca         1 FWW      -0.182000
      9 C04         17.2670     1.8020     1.2800 ca         1 FWW      -0.048500
     10 C05         16.0520     2.4260     0.9380 ca         1 FWW      -0.114800
     11 C06         14.9610     1.6200     0.3200 ce         1 FWW      -0.069200
     12 C08         13.0280     2.4220     1.7580 c3         1 FWW      -0.057900
     13 C11         10.1990     0.0710    -0.2990 ca         1 FWW       0.011000
     14 C12         10.2480    -1.0220    -1.1880 ca         1 FWW      -0.166000
     15 C14          7.8040    -1.2210    -1.1430 ca         1 FWW      -0.187600
     16 C18          3.8950    -3.3450    -0.6490 c5         1 FWW      -0.185400
     17 C19          2.3680    -3.4220    -0.5410 c          1 FWW       0.573000
     18 C23          0.5500    -1.7130    -0.5050 ca         1 FWW      -0.031000
     19 C25         -1.0750    -0.2210     0.5440 ca         1 FWW      -0.063000
     20 C29         -5.9870    -1.1240    -0.4360 ca         1 FWW       0.026000
     21 C30         -6.7060    -0.1480     0.2760 ca         1 FWW      -0.190000
     22 C31         -8.1040    -0.1060     0.2270 ca         1 FWW      -0.013000
     23 C32         -8.8340    -1.0440    -0.5390 ca         1 FWW      -0.281600
     24 C33        -10.3550    -0.9860    -0.5830 c          1 FWW       0.629700
     25 C35        -12.3100     0.4070     0.3780 ca         1 FWW      -0.023000
     26 C36        -13.4000    -0.2650    -0.2040 ca         1 FWW      -0.204000
     27 C37        -14.7130     0.1530     0.0420 ca         1 FWW      -0.019000
     28 C38        -14.9800     1.2570     0.8790 ca         1 FWW      -0.275600
     29 C39        -16.4210     1.6710     1.1140 c          1 FWW       0.725600
     30 C42        -13.8890     1.9420     1.4700 ca         1 FWW       0.226100
     31 C44        -12.5430     1.5170     1.2210 ca         1 FWW      -0.066900
     32 C46        -11.3840     3.2580     2.6300 c3         1 FWW       0.143900
     33 C48         -8.1150    -2.0340    -1.2610 ca         1 FWW       0.229100
     34 C50         -6.6840    -2.0770    -1.2110 ca         1 FWW      -0.041900
     35 C54         -1.8450    -2.0260    -0.8880 ca         1 FWW      -0.063000
     36 C55         -0.5110    -2.4140    -1.1070 ca         1 FWW      -0.104500
     37 C58          7.7600    -0.1280    -0.2460 ca         1 FWW      -0.039000
     38 C59          8.9460     0.5030     0.1680 ca         1 FWW      -0.166000
     39 C61         15.9040     3.8120     1.1470 ca         1 FWW      -0.048500
     40 C62         16.9520     4.5580     1.7140 ca         1 FWW      -0.182000
     41 N10         11.3500     0.7610     0.1710 ns         1 FWW      -0.144000
     42 N16          5.3480    -1.4460    -1.1390 ns         1 FWW      -0.494900
     43 N22          1.9180    -2.1080    -0.7290 n          1 FWW      -0.225000
     44 N28         -4.5660    -1.2100    -0.4190 ns         1 FWW      -0.138000
     45 N34        -10.9540     0.0230     0.1610 ns         1 FWW      -0.105000
     46 O40        -17.3100     1.0340     0.5710 o          1 FWW      -0.691500
     47 O41        -16.6370     2.6310     1.8420 o          1 FWW      -0.691500
     48 O43        -14.1690     3.0050     2.2740 oh         1 FWW      -0.620100
     49 O45        -11.3970     2.1180     1.7500 os         1 FWW      -0.362100
     50 O47        -10.9890    -1.8010    -1.2490 o          1 FWW      -0.646100
     51 O49         -8.8280    -2.9340    -1.9970 oh         1 FWW      -0.546100
     52 O51         -5.8830    -3.0060    -1.8820 os         1 FWW      -0.353100
     53 O53         -3.8080     0.4950     0.9320 o          1 FWW      -0.569100
     54 O57          6.6050    -2.8860    -2.3830 o          1 FWW      -0.589100
     55 H1           9.1370    -2.4980    -2.2920 ha         1 FWW       0.125500
     56 H2           4.0340    -2.3480    -2.6390 h1         1 FWW       0.122700
     57 H3           1.0590    -0.0590     0.8020 ha         1 FWW       0.126500
     58 H4          19.2440     2.0540     2.1120 ha         1 FWW       0.124000
     59 H5          17.3980     0.7350     1.1120 ha         1 FWW       0.118000
     60 H6          15.3270     0.9600    -0.4690 ha         1 FWW       0.201000
     61 H7          12.5200     3.3180     1.3810 hc         1 FWW       0.046367
     62 H8          12.3050     1.8480     2.3510 hc         1 FWW       0.046367
     63 H9          13.7940     2.7510     2.4680 hc         1 FWW       0.046367
     64 H10         11.1910    -1.4030    -1.5650 ha         1 FWW       0.133000
     65 H11          4.3290    -4.2870    -1.0010 hc         1 FWW       0.092200
     66 H12          4.2710    -3.1280     0.3580 hc         1 FWW       0.092200
     67 H13         -1.2670     0.6340     1.1900 ha         1 FWW       0.131500
     68 H14         -6.2010     0.5970     0.8810 ha         1 FWW       0.151000
     69 H15         -8.5990     0.6750     0.8010 ha         1 FWW       0.122000
     70 H16        -13.2560    -1.1210    -0.8550 ha         1 FWW       0.130000
     71 H17        -15.5280    -0.3960    -0.4280 ha         1 FWW       0.127000
     72 H18        -11.9190     3.0400     3.5640 h1         1 FWW       0.026700
     73 H19        -10.3510     3.5180     2.8910 h1         1 FWW       0.026700
     74 H20        -11.8360     4.1330     2.1470 h1         1 FWW       0.026700
     75 H21         -5.5160    -4.6440    -3.1230 h1         1 FWW       0.035700
     76 H22         -7.0030    -4.7590    -2.1670 h1         1 FWW       0.035700
     77 H23         -6.9210    -3.6670    -3.5830 h1         1 FWW       0.035700
     78 H24         -2.6280    -2.6000    -1.3790 ha         1 FWW       0.131500
     79 H25         -0.3090    -3.2590    -1.7600 ha         1 FWW       0.126500
     80 H26          6.8180     0.2480     0.1460 ha         1 FWW       0.125500
     81 H27          8.8850     1.3420     0.8590 ha         1 FWW       0.133000
     82 H28         14.9810     4.3130     0.8620 ha         1 FWW       0.118000
     83 H29         16.8320     5.6260     1.8750 ha         1 FWW       0.124000
     84 H30         11.1480     1.4370     0.8950 hn         1 FWW       0.156000
     85 H31          5.3810    -0.6360    -0.5330 hn         1 FWW       0.320500
     86 H32         -4.2160    -1.9720    -0.9830 hn         1 FWW       0.171000
     87 H33        -10.3010     0.6150     0.6550 hn         1 FWW       0.167000
     88 H34         19.9190     4.0610     2.7930 ho         1 FWW       0.468000
     89 H36        -15.1680     3.0650     2.2620 ho         1 FWW       0.552000
     90 H37         -9.7840    -2.6890    -1.8640 ho         1 FWW       0.528000
     91 O20          1.6650    -4.4200    -0.4610 o          1 FWW      -0.478000
     92 C09         12.6960     0.6860    -0.1680 c          1 FWW       0.615300
     93 O56          2.7650     0.0020    -1.3050 o          1 FWW      -0.465000
     94 C27         -3.5750    -0.4670     0.2080 c          1 FWW       0.621700
     95 C07         13.6200     1.5960     0.6110 cf         1 FWW      -0.201400
     96 O60         13.1240    -0.0500    -1.0500 o          1 FWW      -0.583100
     97 O01         19.1630     4.6600     2.6140 oh         1 FWW      -0.529100
     98 C52         -6.3620    -4.0680    -2.7280 c3         1 FWW       0.140900
@<TRIPOS>BOND
     1     1    14 ar  
     2     1    15 ar  
     3     1    55 1   
     4     2    15 1   
     5     2    42 1   
     6     2    54 2   
     7     3     4 1   
     8     3    16 1   
     9     3    42 1   
    10     3    56 1   
    11     4    43 1   
    12     4    93 2   
    13     5    18 ar  
    14     5    19 ar  
    15     5    57 1   
    16     6    19 ar  
    17     6    35 ar  
    18     6    94 1   
    19     7     8 ar  
    20     7    40 ar  
    21     7    97 1   
    22     8     9 ar  
    23     8    58 1   
    24     9    10 ar  
    25     9    59 1   
    26    10    11 1   
    27    10    39 ar  
    28    11    60 1   
    29    11    95 2   
    30    12    61 1   
    31    12    62 1   
    32    12    63 1   
    33    12    95 1   
    34    13    14 ar  
    35    13    38 ar  
    36    13    41 1   
    37    14    64 1   
    38    15    37 ar  
    39    16    17 1   
    40    16    65 1   
    41    16    66 1   
    42    17    43 1   
    43    17    91 2   
    44    18    36 ar  
    45    18    43 1   
    46    19    67 1   
    47    20    21 ar  
    48    20    34 ar  
    49    20    44 1   
    50    21    22 ar  
    51    21    68 1   
    52    22    23 ar  
    53    22    69 1   
    54    23    24 1   
    55    23    33 ar  
    56    24    45 1   
    57    24    50 2   
    58    25    26 ar  
    59    25    31 ar  
    60    25    45 1   
    61    26    27 ar  
    62    26    70 1   
    63    27    28 ar  
    64    27    71 1   
    65    28    29 1   
    66    28    30 ar  
    67    29    46 1   
    68    29    47 1   
    69    30    31 ar  
    70    30    48 1   
    71    31    49 1   
    72    32    49 1   
    73    32    72 1   
    74    32    73 1   
    75    32    74 1   
    76    33    34 ar  
    77    33    51 1   
    78    34    52 1   
    79    35    36 ar  
    80    35    78 1   
    81    36    79 1   
    82    37    38 ar  
    83    37    80 1   
    84    38    81 1   
    85    39    40 ar  
    86    39    82 1   
    87    40    83 1   
    88    41    84 1   
    89    41    92 1   
    90    42    85 1   
    91    44    86 1   
    92    44    94 1   
    93    45    87 1   
    94    48    89 1   
    95    51    90 1   
    96    52    98 1   
    97    53    94 2   
    98    75    98 1   
    99    76    98 1   
   100    77    98 1   
   101    88    97 1   
   102    92    95 1   
   103    92    96 2   
@<TRIPOS>SUBSTRUCTURE
     1 FWW         1 TEMP              0 ****  ****    0 ROOT
