@<TRIPOS>MOLECULE
FWW
   98   103     1     0     0
SMALL
abcg2


@<TRIPOS>ATOM
      1 C13          8.7620    -0.9700    -2.1410 ca         1 FWW      -0.039000
      2 C15          6.3440    -1.4980    -2.1500 c          1 FWW       0.632700
      3 C17          4.1150    -2.4330    -1.7830 c5         1 FWW       0.025700
      4 C21          2.9220    -1.5280    -1.5090 c          1 FWW       0.549000
      5 C24          0.3510    -0.9280     0.1700 ca         1 FWW      -0.104500
      6 C26         -2.0020    -0.9450    -0.3410 ca         1 FWW      -0.146600
      7 C02         17.6560     3.8300     2.3010 ca         1 FWW       0.154100
      8 C03         17.8670     2.7670     1.4250 ca         1 FWW      -0.182000
      9 C04         16.7880     2.1440     0.8250 ca         1 FWW      -0.048500
     10 C05         15.4710     2.5330     1.0940 ca         1 FWW      -0.114800
     11 C06         14.3860     1.8230     0.4240 ce         1 FWW      -0.069200
     12 C08         12.6430     1.9040     2.2440 c3         1 FWW      -0.057900
     13 C11          9.8460     0.2490    -0.3710 ca         1 FWW       0.011000
     14 C12          9.9120    -0.4260    -1.5940 ca         1 FWW      -0.166000
     15 C14          7.5320    -0.8850    -1.4960 ca         1 FWW      -0.187600
     16 C18          3.7280    -3.7660    -1.1500 c5         1 FWW      -0.185400
     17 C19          2.2510    -3.6560    -0.8920 c          1 FWW       0.573000
     18 C23          0.5690    -1.8530    -0.8430 ca         1 FWW      -0.031000
     19 C25         -0.9300    -0.4630     0.4050 ca         1 FWW      -0.063000
     20 C29         -5.7370    -1.1540    -0.0810 ca         1 FWW       0.026000
     21 C30         -6.3660     0.0440     0.2810 ca         1 FWW      -0.190000
     22 C31         -7.7390     0.0800     0.3760 ca         1 FWW      -0.013000
     23 C32         -8.5410    -1.0390     0.1390 ca         1 FWW      -0.281600
     24 C33        -10.0160    -1.0280     0.2300 c          1 FWW       0.629700
     25 C35        -11.9700     0.4900     0.4420 ca         1 FWW      -0.023000
     26 C36        -13.0200    -0.4340     0.4040 ca         1 FWW      -0.204000
     27 C37        -14.3190     0.0230     0.5350 ca         1 FWW      -0.019000
     28 C38        -14.6250     1.3690     0.6890 ca         1 FWW      -0.275600
     29 C39        -16.0450     1.8460     0.8140 c          1 FWW       0.725600
     30 C42        -13.5720     2.3000     0.7190 ca         1 FWW       0.226100
     31 C44        -12.2530     1.8490     0.6040 ca         1 FWW      -0.066900
     32 C46        -10.8400     3.1760     1.9230 c3         1 FWW       0.143900
     33 C48         -7.9040    -2.2550    -0.1800 ca         1 FWW       0.229100
     34 C50         -6.5140    -2.2910    -0.3110 ca         1 FWW      -0.041900
     35 C54         -1.7700    -1.8670    -1.3580 ca         1 FWW      -0.063000
     36 C55         -0.4850    -2.3140    -1.6170 ca         1 FWW      -0.104500
     37 C58          7.4710    -0.2010    -0.2830 ca         1 FWW      -0.039000
     38 C59          8.6060     0.3600     0.2670 ca         1 FWW      -0.166000
     39 C61         15.2840     3.6190     1.9560 ca         1 FWW      -0.048500
     40 C62         16.3540     4.2610     2.5510 ca         1 FWW      -0.182000
     41 N10         10.9300     0.8320     0.2760 ns         1 FWW      -0.144000
     42 N16          5.3410    -1.8640    -1.3210 ns         1 FWW      -0.494900
     43 N22          1.8790    -2.3310    -1.0900 n          1 FWW      -0.225000
     44 N28         -4.3650    -1.3210    -0.2190 ns         1 FWW      -0.138000
     45 N34        -10.6150     0.1770     0.3050 ns         1 FWW      -0.105000
     46 O40        -16.9650     1.0260     0.7880 o          1 FWW      -0.691500
     47 O41        -16.1880     3.1050     0.9430 o          1 FWW      -0.691500
     48 O43        -13.8040     3.5990     0.8550 oh         1 FWW      -0.620100
     49 O45        -11.2200     2.7440     0.6190 os         1 FWW      -0.362100
     50 O47        -10.6500    -2.0870     0.2200 o          1 FWW      -0.646100
     51 O49         -8.5610    -3.3930    -0.3750 oh         1 FWW      -0.546100
     52 O51         -5.8910    -3.4580    -0.6320 os         1 FWW      -0.353100
     53 O53         -3.5330     0.7300     0.3330 o          1 FWW      -0.569100
     54 O57          6.2980    -1.6710    -3.3580 o          1 FWW      -0.589100
     55 H1           8.8360    -1.4850    -3.0890 ha         1 FWW       0.125500
     56 H2           4.1780    -2.5410    -2.8690 h1         1 FWW       0.122700
     57 H3           1.1740    -0.5820     0.7810 ha         1 FWW       0.126500
     58 H4          18.8730     2.4290     1.2060 ha         1 FWW       0.124000
     59 H5          16.9700     1.3260     0.1390 ha         1 FWW       0.118000
     60 H6          14.6420     1.4350    -0.5570 ha         1 FWW       0.201000
     61 H7          12.0010     2.7890     2.2580 hc         1 FWW       0.046367
     62 H8          12.0710     1.0780     2.6710 hc         1 FWW       0.046367
     63 H9          13.4680     2.0920     2.9270 hc         1 FWW       0.046367
     64 H10         10.8450    -0.5300    -2.1220 ha         1 FWW       0.133000
     65 H11          3.9480    -4.6270    -1.7800 hc         1 FWW       0.092200
     66 H12          4.2290    -3.9220    -0.1910 hc         1 FWW       0.092200
     67 H13         -1.0970     0.2610     1.1910 ha         1 FWW       0.131500
     68 H14         -5.7950     0.9320     0.4910 ha         1 FWW       0.151000
     69 H15         -8.1760     1.0230     0.6760 ha         1 FWW       0.122000
     70 H16        -12.8330    -1.4860     0.2750 ha         1 FWW       0.130000
     71 H17        -15.1290    -0.6940     0.5090 ha         1 FWW       0.127000
     72 H18        -10.5110     2.3370     2.5420 h1         1 FWW       0.026700
     73 H19        -10.0090     3.8690     1.8000 h1         1 FWW       0.026700
     74 H20        -11.6560     3.6900     2.4310 h1         1 FWW       0.026700
     75 H21         -5.2840    -4.6570    -2.1560 h1         1 FWW       0.035700
     76 H22         -6.9230    -4.0110    -2.3670 h1         1 FWW       0.035700
     77 H23         -5.5130    -2.9620    -2.6290 h1         1 FWW       0.035700
     78 H24         -2.5760    -2.2220    -1.9870 ha         1 FWW       0.131500
     79 H25         -0.3080    -3.0090    -2.4270 ha         1 FWW       0.126500
     80 H26          6.5330    -0.0680     0.2420 ha         1 FWW       0.125500
     81 H27          8.5290     0.8960     1.2050 ha         1 FWW       0.133000
     82 H28         14.2890     3.9990     2.1450 ha         1 FWW       0.118000
     83 H29         16.1850     5.1080     3.2050 ha         1 FWW       0.124000
     84 H30         10.6880     1.3030     1.1340 hn         1 FWW       0.156000
     85 H31          5.4690    -1.7900    -0.3240 hn         1 FWW       0.320500
     86 H32         -4.0850    -2.2760    -0.3880 hn         1 FWW       0.171000
     87 H33        -10.0280     0.9930     0.2090 hn         1 FWW       0.167000
     88 H34         19.5110     4.0990     2.6650 ho         1 FWW       0.468000
     89 H36        -14.8360     3.6390     0.9160 ho         1 FWW       0.552000
     90 H37         -9.5120    -3.2060    -0.1830 ho         1 FWW       0.528000
     91 O20          1.4920    -4.5220    -0.5470 o          1 FWW      -0.478000
     92 C09         12.2420     0.8630    -0.0950 c          1 FWW       0.615300
     93 O56          2.8670    -0.3370    -1.6500 o          1 FWW      -0.465000
     94 C27         -3.3660    -0.4140    -0.0440 c          1 FWW       0.621700
     95 C07         13.1440     1.5690     0.8690 cf         1 FWW      -0.201400
     96 O60         12.6430     0.3680    -1.1350 o          1 FWW      -0.583100
     97 O01         18.6600     4.4790     2.9140 oh         1 FWW      -0.529100
     98 C52         -5.9140    -3.7800    -2.0240 c3         1 FWW       0.140900
@<TRIPOS>BOND
     1     1    14 ar  
     2     1    15 ar  
     3     1    55 1   
     4     2    15 1   
     5     2    42 1   
     6     2    54 2   
     7     3     4 1   
     8     3    16 1   
     9     3    42 1   
    10     3    56 1   
    11     4    43 1   
    12     4    93 2   
    13     5    18 ar  
    14     5    19 ar  
    15     5    57 1   
    16     6    19 ar  
    17     6    35 ar  
    18     6    94 1   
    19     7     8 ar  
    20     7    40 ar  
    21     7    97 1   
    22     8     9 ar  
    23     8    58 1   
    24     9    10 ar  
    25     9    59 1   
    26    10    11 1   
    27    10    39 ar  
    28    11    60 1   
    29    11    95 2   
    30    12    61 1   
    31    12    62 1   
    32    12    63 1   
    33    12    95 1   
    34    13    14 ar  
    35    13    38 ar  
    36    13    41 1   
    37    14    64 1   
    38    15    37 ar  
    39    16    17 1   
    40    16    65 1   
    41    16    66 1   
    42    17    43 1   
    43    17    91 2   
    44    18    36 ar  
    45    18    43 1   
    46    19    67 1   
    47    20    21 ar  
    48    20    34 ar  
    49    20    44 1   
    50    21    22 ar  
    51    21    68 1   
    52    22    23 ar  
    53    22    69 1   
    54    23    24 1   
    55    23    33 ar  
    56    24    45 1   
    57    24    50 2   
    58    25    26 ar  
    59    25    31 ar  
    60    25    45 1   
    61    26    27 ar  
    62    26    70 1   
    63    27    28 ar  
    64    27    71 1   
    65    28    29 1   
    66    28    30 ar  
    67    29    46 1   
    68    29    47 1   
    69    30    31 ar  
    70    30    48 1   
    71    31    49 1   
    72    32    49 1   
    73    32    72 1   
    74    32    73 1   
    75    32    74 1   
    76    33    34 ar  
    77    33    51 1   
    78    34    52 1   
    79    35    36 ar  
    80    35    78 1   
    81    36    79 1   
    82    37    38 ar  
    83    37    80 1   
    84    38    81 1   
    85    39    40 ar  
    86    39    82 1   
    87    40    83 1   
    88    41    84 1   
    89    41    92 1   
    90    42    85 1   
    91    44    86 1   
    92    44    94 1   
    93    45    87 1   
    94    48    89 1   
    95    51    90 1   
    96    52    98 1   
    97    53    94 2   
    98    75    98 1   
    99    76    98 1   
   100    77    98 1   
   101    88    97 1   
   102    92    95 1   
   103    92    96 2   
@<TRIPOS>SUBSTRUCTURE
     1 FWW         1 TEMP              0 ****  ****    0 ROOT
