@<TRIPOS>MOLECULE
FWX
   58    60     1     0     0
SMALL
abcg2


@<TRIPOS>ATOM
      1 C19        100.1920   120.4770   113.3060 ca         1 FWX      -0.072300
      2 C21         99.9760   119.8340   110.9830 ca         1 FWX      -0.102500
      3 C18        101.1280   119.4510   113.4550 ca         1 FWX      -0.112000
      4 C17        101.4930   118.6480   112.3880 ca         1 FWX      -0.102500
      5 C16        100.9290   118.8340   111.1260 ca         1 FWX      -0.091300
      6 C14        100.5540   116.6130   109.9650 c3         1 FWX      -0.152400
      7 C12         99.0600   116.8460   109.8750 c          1 FWX       0.613100
      8 C01         97.9110   120.8750   117.7770 c3         1 FWX      -0.116100
      9 C02         96.7830   119.9190   117.4220 c3         1 FWX       0.244800
     10 C04         97.0860   119.0780   115.1150 ca         1 FWX       0.398900
     11 C06         97.1420   118.2490   113.0000 ca         1 FWX       0.180300
     12 C07         98.2030   117.3880   113.3240 ca         1 FWX      -0.207300
     13 C08         98.7580   116.4090   112.3160 c6         1 FWX       0.174300
     14 C10         96.8650   116.9470   110.9040 c6         1 FWX       0.091000
     15 C11         96.5610   118.2500   111.6190 c6         1 FWX      -0.160700
     16 C15        101.3080   117.9520   109.9700 c3         1 FWX      -0.023100
     17 C20         99.6140   120.6430   112.0540 ca         1 FWX      -0.112000
     18 C22         99.8850   121.3760   114.4830 c3         1 FWX      -0.018400
     19 C23        101.1020   122.2450   114.8170 c3         1 FWX      -0.086600
     20 C24         98.6590   122.2590   114.2880 c3         1 FWX      -0.086600
     21 C25         98.6610   117.5130   114.6310 ca         1 FWX       0.116500
     22 C27         99.8230   116.7100   115.1710 c          1 FWX       0.508600
     23 N03         96.4690   119.8640   116.0130 nu         1 FWX      -0.933100
     24 N05         96.5960   119.0760   113.8700 nb         1 FWX      -0.248000
     25 N09         98.2900   116.6930   110.9740 n          1 FWX      -0.406800
     26 N26         98.1210   118.3440   115.5120 nb         1 FWX      -0.273000
     27 N28        100.3180   117.1800   116.3190 nt         1 FWX      -0.584000
     28 O13         98.5810   117.1850   108.7970 o          1 FWX      -0.619100
     29 O29        100.2550   115.7240   114.5920 o          1 FWX      -0.612100
     30 H1          99.5130   119.9970   110.0160 ha         1 FWX       0.116000
     31 H2         101.5850   119.2820   114.4240 ha         1 FWX       0.112000
     32 H3         102.2350   117.8700   112.5320 ha         1 FWX       0.116000
     33 H4         100.8640   116.0080   110.8140 hc         1 FWX       0.066200
     34 H5         100.8400   116.0560   109.0710 hc         1 FWX       0.066200
     35 H6          98.0510   120.9040   118.8580 hc         1 FWX       0.042700
     36 H7          98.8520   120.5600   117.3280 hc         1 FWX       0.042700
     37 H8          97.6940   121.8870   117.4360 hc         1 FWX       0.042700
     38 H9          95.8700   120.2220   117.9360 h1         1 FWX       0.050700
     39 H10         97.0230   118.9150   117.7740 h1         1 FWX       0.050700
     40 H11         98.4600   115.3920   112.5920 h1         1 FWX       0.074200
     41 H12         99.8390   116.4340   112.3520 h1         1 FWX       0.074200
     42 H13         96.5430   116.9830   109.8690 h1         1 FWX       0.066700
     43 H14         96.3390   116.1180   111.3860 h1         1 FWX       0.066700
     44 H15         96.9930   119.0860   111.0590 hc         1 FWX       0.077200
     45 H16         95.4860   118.4240   111.6770 hc         1 FWX       0.077200
     46 H17        102.3780   117.7370   109.9940 hc         1 FWX       0.057200
     47 H18        101.1120   118.4700   109.0290 hc         1 FWX       0.057200
     48 H19         98.8710   121.4140   111.8940 ha         1 FWX       0.112000
     49 H20         99.7010   120.7220   115.3410 hc         1 FWX       0.052700
     50 H21        100.9160   122.8420   115.7110 hc         1 FWX       0.035033
     51 H22        101.9930   121.6440   114.9960 hc         1 FWX       0.035033
     52 H23        101.3210   122.9310   113.9960 hc         1 FWX       0.035033
     53 H24         98.4340   122.7930   115.2120 hc         1 FWX       0.035033
     54 H25         98.8300   123.0080   113.5120 hc         1 FWX       0.035033
     55 H26         97.7740   121.6870   114.0110 hc         1 FWX       0.035033
     56 H27         95.7140   120.4300   115.6650 hn         1 FWX       0.508000
     57 H28        101.0580   116.6880   116.7920 hn         1 FWX       0.327000
     58 H29         99.8590   117.9420   116.7890 hn         1 FWX       0.327000
@<TRIPOS>BOND
     1     1     3 ar  
     2     1    17 ar  
     3     1    18 1   
     4     2     5 ar  
     5     2    17 ar  
     6     2    30 1   
     7     3     4 ar  
     8     3    31 1   
     9     4     5 ar  
    10     4    32 1   
    11     5    16 1   
    12     6     7 1   
    13     6    16 1   
    14     6    33 1   
    15     6    34 1   
    16     7    25 1   
    17     7    28 2   
    18     8     9 1   
    19     8    35 1   
    20     8    36 1   
    21     8    37 1   
    22     9    23 1   
    23     9    38 1   
    24     9    39 1   
    25    10    23 1   
    26    10    24 ar  
    27    10    26 ar  
    28    11    12 ar  
    29    11    15 1   
    30    11    24 ar  
    31    12    13 1   
    32    12    21 ar  
    33    13    25 1   
    34    13    40 1   
    35    13    41 1   
    36    14    15 1   
    37    14    25 1   
    38    14    42 1   
    39    14    43 1   
    40    15    44 1   
    41    15    45 1   
    42    16    46 1   
    43    16    47 1   
    44    17    48 1   
    45    18    19 1   
    46    18    20 1   
    47    18    49 1   
    48    19    50 1   
    49    19    51 1   
    50    19    52 1   
    51    20    53 1   
    52    20    54 1   
    53    20    55 1   
    54    21    22 1   
    55    21    26 ar  
    56    22    27 1   
    57    22    29 2   
    58    23    56 1   
    59    27    57 1   
    60    27    58 1   
@<TRIPOS>SUBSTRUCTURE
     1 FWX         1 TEMP              0 ****  ****    0 ROOT
