@<TRIPOS>MOLECULE
FWX
   58    60     1     0     0
SMALL
No Charge or Current Charge


@<TRIPOS>ATOM
      1 C19        100.3750   120.4750   113.1950 ca         1 FWX      -0.072300
      2 C21        100.0440   119.7900   110.8680 ca         1 FWX      -0.102500
      3 C18        101.3850   119.4980   113.3090 ca         1 FWX      -0.112000
      4 C17        101.7280   118.6830   112.2170 ca         1 FWX      -0.102500
      5 C16        101.0530   118.8190   110.9910 ca         1 FWX      -0.091300
      6 C14        100.5850   116.5830   109.8310 c3         1 FWX      -0.152400
      7 C12         99.0660   116.8400   109.7720 c          1 FWX       0.613100
      8 C01         97.7250   120.9010   117.8040 c3         1 FWX      -0.116100
      9 C02         96.5290   119.9550   117.6000 c3         1 FWX       0.244800
     10 C04         96.9060   119.0060   115.2380 ca         1 FWX       0.398900
     11 C06         97.0230   118.2610   113.0870 ca         1 FWX       0.180300
     12 C07         98.1510   117.4750   113.4070 ca         1 FWX      -0.207300
     13 C08         98.8250   116.6120   112.3260 c6         1 FWX       0.174300
     14 C10         96.8090   116.9960   110.9200 c6         1 FWX       0.091000
     15 C11         96.4360   118.2770   111.6840 c6         1 FWX      -0.160700
     16 C15        101.3880   117.9070   109.8170 c3         1 FWX      -0.023100
     17 C20         99.7070   120.6120   111.9570 ca         1 FWX      -0.112000
     18 C22        100.0490   121.3500   114.4170 c3         1 FWX      -0.018400
     19 C23        101.2310   122.2860   114.7570 c3         1 FWX      -0.086600
     20 C24         98.7340   122.1570   114.3030 c3         1 FWX      -0.086600
     21 C25         98.6250   117.5360   114.7500 ca         1 FWX       0.116500
     22 C27         99.8380   116.7520   115.2650 c          1 FWX       0.508600
     23 N03         96.2250   119.7780   116.1690 nu         1 FWX      -0.933100
     24 N05         96.3970   119.0240   114.0000 nb         1 FWX      -0.248000
     25 N09         98.2760   116.7960   110.9520 n          1 FWX      -0.406800
     26 N26         97.9780   118.3130   115.6550 nb         1 FWX      -0.273000
     27 N28        100.2420   116.9920   116.5370 nt         1 FWX      -0.584000
     28 O13         98.5440   117.0690   108.6880 o          1 FWX      -0.619100
     29 O29        100.4540   115.9210   114.6160 o          1 FWX      -0.612100
     30 H1          99.5100   119.9060   109.9280 ha         1 FWX       0.116000
     31 H2         101.9100   119.3670   114.2530 ha         1 FWX       0.112000
     32 H3         102.5070   117.9330   112.3320 ha         1 FWX       0.116000
     33 H4         100.8690   116.0130   110.7200 hc         1 FWX       0.066200
     34 H5         100.8730   116.0130   108.9400 hc         1 FWX       0.066200
     35 H6          97.9170   121.0380   118.8740 hc         1 FWX       0.042700
     36 H7          98.6330   120.4960   117.3440 hc         1 FWX       0.042700
     37 H8          97.5180   121.8850   117.3660 hc         1 FWX       0.042700
     38 H9          95.6570   120.3900   118.1090 h1         1 FWX       0.050700
     39 H10         96.7350   118.9850   118.0730 h1         1 FWX       0.050700
     40 H11         98.7270   115.5520   112.6010 h1         1 FWX       0.074200
     41 H12         99.8900   116.8530   112.3460 h1         1 FWX       0.074200
     42 H13         96.4310   117.0570   109.8900 h1         1 FWX       0.066700
     43 H14         96.3190   116.1320   111.3920 h1         1 FWX       0.066700
     44 H15         96.8180   119.1530   111.1430 hc         1 FWX       0.077200
     45 H16         95.3430   118.3780   111.7220 hc         1 FWX       0.077200
     46 H17        102.4590   117.6720   109.8200 hc         1 FWX       0.057200
     47 H18        101.1990   118.4290   108.8700 hc         1 FWX       0.057200
     48 H19         98.9240   121.3510   111.8180 ha         1 FWX       0.112000
     49 H20         99.9220   120.6770   115.2730 hc         1 FWX       0.052700
     50 H21        101.0130   122.8770   115.6550 hc         1 FWX       0.035033
     51 H22        102.1460   121.7120   114.9490 hc         1 FWX       0.035033
     52 H23        101.4280   122.9770   113.9290 hc         1 FWX       0.035033
     53 H24         98.5110   122.6640   115.2490 hc         1 FWX       0.035033
     54 H25         98.8060   122.9240   113.5230 hc         1 FWX       0.035033
     55 H26         97.8900   121.4990   114.0690 hc         1 FWX       0.035033
     56 H27         95.4120   120.2740   115.8000 hn         1 FWX       0.508000
     57 H28        101.0320   116.4890   116.9120 hn         1 FWX       0.327000
     58 H29         99.7450   117.6660   117.1000 hn         1 FWX       0.327000
@<TRIPOS>BOND
     1     1     3 ar  
     2     1    17 ar  
     3     1    18 1   
     4     2     5 ar  
     5     2    17 ar  
     6     2    30 1   
     7     3     4 ar  
     8     3    31 1   
     9     4     5 ar  
    10     4    32 1   
    11     5    16 1   
    12     6     7 1   
    13     6    16 1   
    14     6    33 1   
    15     6    34 1   
    16     7    25 1   
    17     7    28 2   
    18     8     9 1   
    19     8    35 1   
    20     8    36 1   
    21     8    37 1   
    22     9    23 1   
    23     9    38 1   
    24     9    39 1   
    25    10    23 1   
    26    10    24 ar  
    27    10    26 ar  
    28    11    12 ar  
    29    11    15 1   
    30    11    24 ar  
    31    12    13 1   
    32    12    21 ar  
    33    13    25 1   
    34    13    40 1   
    35    13    41 1   
    36    14    15 1   
    37    14    25 1   
    38    14    42 1   
    39    14    43 1   
    40    15    44 1   
    41    15    45 1   
    42    16    46 1   
    43    16    47 1   
    44    17    48 1   
    45    18    19 1   
    46    18    20 1   
    47    18    49 1   
    48    19    50 1   
    49    19    51 1   
    50    19    52 1   
    51    20    53 1   
    52    20    54 1   
    53    20    55 1   
    54    21    22 1   
    55    21    26 ar  
    56    22    27 1   
    57    22    29 2   
    58    23    56 1   
    59    27    57 1   
    60    27    58 1   
@<TRIPOS>SUBSTRUCTURE
     1 FWX         1 TEMP              0 ****  ****    0 ROOT
