@<TRIPOS>MOLECULE
FWZ
  124   131     1     0     0
SMALL
abcg2


@<TRIPOS>ATOM
      1 N1          -9.8910    -1.4750     0.3570 ns         1 FWZ      -0.484900
      2 C4          -7.5500    -1.0500     0.2330 c          1 FWZ       0.602100
      3 C5          -7.1730    -3.8940    -0.7920 c3         1 FWZ      -0.090433
      4 C6          -8.6810    -2.5040    -2.2160 c3         1 FWZ      -0.090433
      5 C7          -9.6380    -4.1990    -0.6650 c3         1 FWZ      -0.090433
      6 C10         -5.4390    -0.1010     0.8780 c5         1 FWZ       0.028700
      7 C13         -6.1180    -2.1340     2.0010 c5         1 FWZ       0.069000
      8 C15         -4.8040    -0.1560    -0.5090 c          1 FWZ       0.605100
      9 C20         -1.6500     2.1700    -1.4410 ca         1 FWZ       0.166100
     10 C21         -0.7080     3.1900    -1.3930 ca         1 FWZ      -0.200000
     11 C22         -0.8930     4.3650    -2.1300 ca         1 FWZ       0.041000
     12 C24         -2.9730     3.4840    -2.9450 ca         1 FWZ      -0.065000
     13 C26         -0.0400     6.7840    -2.0350 cc         1 FWZ       0.306300
     14 C28          2.1630     6.7150    -2.0340 cd         1 FWZ       0.416300
     15 C2          -8.6100    -2.1440     0.3210 c3         1 FWZ       0.048700
     16 C3          -8.5200    -3.1710    -0.8490 c3         1 FWZ      -0.047000
     17 N8          -6.4580    -1.1310     1.0050 n          1 FWZ      -0.389800
     18 O9          -7.7100    -0.1050    -0.5320 o          1 FWZ      -0.616100
     19 C11         -4.4240    -0.4620     1.9680 c5         1 FWZ      -0.082400
     20 C12         -4.6040    -1.9610     2.1570 c5         1 FWZ       0.153300
     21 O14         -4.1110    -2.3670     3.4030 oh         1 FWZ      -0.648000
     22 O16         -4.5460    -1.2220    -1.0480 o          1 FWZ      -0.611100
     23 N17         -4.5110     1.0380    -1.0350 ns         1 FWZ      -0.483900
     24 C18         -3.8260     1.2140    -2.2960 c3         1 FWZ       0.158300
     25 C19         -2.8050     2.3130    -2.2260 ca         1 FWZ      -0.145300
     26 C23         -2.0310     4.5050    -2.9150 ca         1 FWZ      -0.133000
     27 C25          0.1170     5.4230    -2.0840 cd         1 FWZ      -0.191000
     28 N27          1.1310     7.4930    -2.0090 nc         1 FWZ      -0.636000
     29 S29          1.8020     5.0430    -2.0950 ss         1 FWZ      -0.032400
     30 C31        -10.8330    -1.7210     1.2780 c          1 FWZ       0.622100
     31 C32        -12.0870    -0.9160     1.1460 cx         1 FWZ       0.033000
     32 O33        -10.7290    -2.5420     2.1780 o          1 FWZ      -0.609100
     33 F34        -12.0630    -0.0130     0.1100 f          1 FWZ      -0.231000
     34 C35        -13.3970    -1.5590     1.4480 cx         1 FWZ      -0.118400
     35 C36        -12.8360    -0.5180     2.3700 cx         1 FWZ      -0.118400
     36 O37         -1.5320     1.0120    -0.7690 os         1 FWZ      -0.343100
     37 C38         -0.3220     0.7340    -0.0860 c3         1 FWZ       0.161600
     38 C39         -0.4150    -0.6630     0.5060 c3         1 FWZ      -0.035100
     39 C40          4.7750    -1.8390     2.8670 c3         1 FWZ       0.214100
     40 N41          5.4640    -0.5960     3.1760 n3         1 FWZ      -0.719600
     41 C42          5.7660     0.2240     2.0170 c6         1 FWZ       0.163800
     42 C43          6.9290    -0.2980     1.1820 c6         1 FWZ       0.147800
     43 N44          8.1070    -0.4220     2.0290 nh         1 FWZ      -0.782400
     44 C45          7.8540    -1.3010     3.1780 c6         1 FWZ       0.147800
     45 C46          6.6650    -0.7770     3.9720 c6         1 FWZ       0.163800
     46 C47          9.3240    -0.6000     1.3930 ca         1 FWZ       0.234000
     47 C48          9.4700    -1.0400     0.1040 ca         1 FWZ      -0.158000
     48 C49         10.7620    -1.1830    -0.4370 cp         1 FWZ       0.377500
     49 N50         11.8190    -0.8880     0.2990 nb         1 FWZ      -0.374000
     50 N51         11.7130    -0.4130     1.5210 nb         1 FWZ      -0.370000
     51 C52         10.5310    -0.2520     2.0770 ca         1 FWZ       0.513900
     52 N53         10.4900     0.2530     3.3400 nv         1 FWZ      -1.039900
     53 C54         11.0170    -1.6830    -1.8010 cp         1 FWZ      -0.266500
     54 C55         12.3330    -1.8950    -2.2720 ca         1 FWZ       0.207100
     55 C56         12.5340    -2.3850    -3.5650 ca         1 FWZ      -0.173000
     56 C57         11.4640    -2.6590    -4.3950 ca         1 FWZ      -0.052000
     57 C58         10.1640    -2.4470    -3.9500 ca         1 FWZ      -0.170000
     58 C59          9.9580    -1.9660    -2.6710 ca         1 FWZ      -0.051000
     59 O60         13.4160    -1.6480    -1.5320 oh         1 FWZ      -0.556100
     60 C61          0.8970    -1.0270     1.1440 ca         1 FWZ      -0.083300
     61 C62          1.8210    -1.8190     0.4730 ca         1 FWZ      -0.107500
     62 C63          3.0650    -2.0900     1.0320 ca         1 FWZ      -0.096000
     63 C64          3.4170    -1.5770     2.2740 ca         1 FWZ      -0.088300
     64 C65          2.4870    -0.7920     2.9530 ca         1 FWZ      -0.096000
     65 C66          1.2460    -0.5240     2.3980 ca         1 FWZ      -0.107500
     66 H1         -10.0470    -0.7480    -0.3220 hn         1 FWZ       0.348500
     67 H2          -6.3270    -3.2110    -0.8780 hc         1 FWZ       0.041144
     68 H3          -7.0650    -4.4600     0.1360 hc         1 FWZ       0.041144
     69 H4          -7.1000    -4.6100    -1.6130 hc         1 FWZ       0.041144
     70 H5          -7.8660    -1.8190    -2.4450 hc         1 FWZ       0.041144
     71 H6          -8.6970    -3.2710    -2.9930 hc         1 FWZ       0.041144
     72 H7          -9.6200    -1.9520    -2.2920 hc         1 FWZ       0.041144
     73 H8          -9.5520    -4.9780    -1.4250 hc         1 FWZ       0.041144
     74 H9          -9.5890    -4.6780     0.3140 hc         1 FWZ       0.041144
     75 H10        -10.6260    -3.7490    -0.7710 hc         1 FWZ       0.041144
     76 H11         -5.8640     0.8890     1.0600 h1         1 FWZ       0.075700
     77 H12         -6.6150    -1.9260     2.9540 h1         1 FWZ       0.060200
     78 H13         -6.3840    -3.1390     1.6820 h1         1 FWZ       0.060200
     79 H14          0.1740     3.0990    -0.7720 ha         1 FWZ       0.124000
     80 H15         -3.8560     3.5970    -3.5620 ha         1 FWZ       0.119000
     81 H16          3.1860     7.0650    -2.0190 h5         1 FWZ       0.053100
     82 H17         -8.5200    -2.7030     1.2530 h1         1 FWZ       0.087700
     83 H18         -3.4060    -0.1750     1.7030 hc         1 FWZ       0.070700
     84 H19         -4.6880     0.0530     2.8940 hc         1 FWZ       0.070700
     85 H20         -4.1050    -2.4930     1.3390 h1         1 FWZ       0.062700
     86 H21         -4.1040    -3.3290     3.4290 ho         1 FWZ       0.450000
     87 H22         -4.8340     1.8680    -0.5640 hn         1 FWZ       0.316500
     88 H23         -3.3570     0.2660    -2.5600 h1         1 FWZ       0.065200
     89 H24         -4.5460     1.4410    -3.0870 h1         1 FWZ       0.065200
     90 H25         -2.1770     5.3880    -3.5210 ha         1 FWZ       0.125000
     91 H26         -1.6810     7.7940    -2.9840 hc         1 FWZ       0.053033
     92 H27         -2.1200     6.9360    -1.5140 hc         1 FWZ       0.053033
     93 H28         -1.2140     8.4490    -1.4210 hc         1 FWZ       0.053033
     94 H29        -14.2330    -1.2750     0.8210 hc         1 FWZ       0.092200
     95 H30        -13.3880    -2.5940     1.7600 hc         1 FWZ       0.092200
     96 H31        -12.4370    -0.8240     3.3270 hc         1 FWZ       0.092200
     97 H32        -13.2970     0.4620     2.3570 hc         1 FWZ       0.092200
     98 H33          0.5250     0.7900    -0.7800 h1         1 FWZ       0.039200
     99 H34         -0.1510     1.4680     0.7090 h1         1 FWZ       0.039200
    100 H35         -1.2200    -0.6950     1.2450 hc         1 FWZ       0.066200
    101 H36         -0.6630    -1.3770    -0.2810 hc         1 FWZ       0.066200
    102 H37          5.3330    -2.5080     2.1950 h1         1 FWZ       0.040700
    103 H38          4.6620    -2.3860     3.8080 h1         1 FWZ       0.040700
    104 H40          4.8800     0.3130     1.3860 h1         1 FWZ       0.063450
    105 H41          6.0140     1.2320     2.3650 h1         1 FWZ       0.063450
    106 H42          6.6620    -1.2560     0.7120 h1         1 FWZ       0.049450
    107 H43          7.1380     0.4100     0.3780 h1         1 FWZ       0.049450
    108 H44          7.6710    -2.3260     2.8300 h1         1 FWZ       0.049450
    109 H45          8.7320    -1.3360     3.8210 h1         1 FWZ       0.049450
    110 H46          6.9360     0.1890     4.4100 h1         1 FWZ       0.063450
    111 H47          6.4540    -1.4590     4.7970 h1         1 FWZ       0.063450
    112 H48          8.5970    -1.3000    -0.4750 ha         1 FWZ       0.131000
    113 H49         11.3460     0.6800     3.6600 hn         1 FWZ       0.474500
    114 H50          9.6630     0.7790     3.5780 hn         1 FWZ       0.474500
    115 H51         13.5500    -2.5440    -3.9060 ha         1 FWZ       0.130000
    116 H52         11.6470    -3.0380    -5.3920 ha         1 FWZ       0.114000
    117 H53          9.3190    -2.6530    -4.5930 ha         1 FWZ       0.114000
    118 H54          8.9390    -1.8050    -2.3480 ha         1 FWZ       0.101000
    119 H55         13.0990    -1.2850    -0.6580 ho         1 FWZ       0.526000
    120 H56          1.5760    -2.2210    -0.5030 ha         1 FWZ       0.115500
    121 H57          3.7720    -2.7040     0.4850 ha         1 FWZ       0.118000
    122 H58          2.7440    -0.3790     3.9210 ha         1 FWZ       0.118000
    123 H59          0.5390     0.0890     2.9440 ha         1 FWZ       0.115500
    124 C30         -1.3350     7.5250    -1.9850 c3         1 FWZ      -0.123400
@<TRIPOS>BOND
     1     1    15 1   
     2     1    30 1   
     3     1    66 1   
     4     2    15 1   
     5     2    17 1   
     6     2    18 2   
     7     3    16 1   
     8     3    67 1   
     9     3    68 1   
    10     3    69 1   
    11     4    16 1   
    12     4    70 1   
    13     4    71 1   
    14     4    72 1   
    15     5    16 1   
    16     5    73 1   
    17     5    74 1   
    18     5    75 1   
    19     6     8 1   
    20     6    17 1   
    21     6    19 1   
    22     6    76 1   
    23     7    17 1   
    24     7    20 1   
    25     7    77 1   
    26     7    78 1   
    27     8    22 2   
    28     8    23 1   
    29     9    10 ar  
    30     9    25 ar  
    31     9    36 1   
    32    10    11 ar  
    33    10    79 1   
    34    11    26 ar  
    35    11    27 1   
    36    12    25 ar  
    37    12    26 ar  
    38    12    80 1   
    39    13    27 2   
    40    13    28 1   
    41    13   124 1   
    42    14    28 2   
    43    14    29 1   
    44    14    81 1   
    45    15    16 1   
    46    15    82 1   
    47    19    20 1   
    48    19    83 1   
    49    19    84 1   
    50    20    21 1   
    51    20    85 1   
    52    21    86 1   
    53    23    24 1   
    54    23    87 1   
    55    24    25 1   
    56    24    88 1   
    57    24    89 1   
    58    26    90 1   
    59    27    29 1   
    60    30    31 1   
    61    30    32 2   
    62    31    33 1   
    63    31    34 1   
    64    31    35 1   
    65    34    35 1   
    66    34    94 1   
    67    34    95 1   
    68    35    96 1   
    69    35    97 1   
    70    36    37 1   
    71    37    38 1   
    72    37    98 1   
    73    37    99 1   
    74    38    60 1   
    75    38   100 1   
    76    38   101 1   
    77    39    40 1   
    78    39    63 1   
    79    39   102 1   
    80    39   103 1   
    81    40    41 1   
    82    40    45 1   
    83    41    42 1   
    84    41   104 1   
    85    41   105 1   
    86    42    43 1   
    87    42   106 1   
    88    42   107 1   
    89    43    44 1   
    90    43    46 1   
    91    44    45 1   
    92    44   108 1   
    93    44   109 1   
    94    45   110 1   
    95    45   111 1   
    96    46    47 ar  
    97    46    51 ar  
    98    47    48 ar  
    99    47   112 1   
   100    48    49 ar  
   101    48    53 1   
   102    49    50 ar  
   103    50    51 ar  
   104    51    52 1   
   105    52   113 1   
   106    52   114 1   
   107    53    54 ar  
   108    53    58 ar  
   109    54    55 ar  
   110    54    59 1   
   111    55    56 ar  
   112    55   115 1   
   113    56    57 ar  
   114    56   116 1   
   115    57    58 ar  
   116    57   117 1   
   117    58   118 1   
   118    59   119 1   
   119    60    61 ar  
   120    60    65 ar  
   121    61    62 ar  
   122    61   120 1   
   123    62    63 ar  
   124    62   121 1   
   125    63    64 ar  
   126    64    65 ar  
   127    64   122 1   
   128    65   123 1   
   129    91   124 1   
   130    92   124 1   
   131    93   124 1   
@<TRIPOS>SUBSTRUCTURE
     1 FWZ         1 TEMP              0 ****  ****    0 ROOT
