@<TRIPOS>MOLECULE
FWZ
  124   131     1     0     0
SMALL
No Charge or Current Charge


@<TRIPOS>ATOM
      1 N1          -9.6900    -2.1220     1.0860 ns         1 FWZ      -0.484900
      2 C4          -7.5770    -1.0590     0.3700 c          1 FWZ       0.602100
      3 C5          -6.7170    -3.9140    -0.6950 c3         1 FWZ      -0.090433
      4 C6          -8.8140    -2.9860    -1.7370 c3         1 FWZ      -0.090433
      5 C7          -8.9510    -4.7970     0.0130 c3         1 FWZ      -0.090433
      6 C10         -5.4660     0.3370     0.2070 c5         1 FWZ       0.028700
      7 C13         -5.4450    -1.6680     1.6510 c5         1 FWZ       0.069000
      8 C15         -5.0010     0.2940    -1.2840 c          1 FWZ       0.605100
      9 C20         -1.7110     2.6790    -2.2080 ca         1 FWZ       0.166100
     10 C21         -0.7490     3.7040    -2.0710 ca         1 FWZ      -0.200000
     11 C22         -1.0050     5.0170    -2.5270 ca         1 FWZ       0.041000
     12 C24         -3.2100     4.2560    -3.2840 ca         1 FWZ      -0.065000
     13 C26         -0.0660     7.4470    -2.4570 cc         1 FWZ       0.306300
     14 C28          2.1430     7.3090    -2.2690 cd         1 FWZ       0.416300
     15 C2          -8.2800    -2.4160     0.7250 c3         1 FWZ       0.048700
     16 C3          -8.1890    -3.5090    -0.4130 c3         1 FWZ      -0.047000
     17 N8          -6.2000    -0.8870     0.6440 n          1 FWZ      -0.389800
     18 O9          -8.2030    -0.1500    -0.1690 o          1 FWZ      -0.616100
     19 C11         -4.2170     0.3140     1.1460 c5         1 FWZ      -0.082400
     20 C12         -3.9900    -1.2000     1.3760 c5         1 FWZ       0.153300
     21 O14         -3.1120    -1.4370     2.4780 oh         1 FWZ      -0.648000
     22 O16         -4.9860    -0.6740    -2.0340 o          1 FWZ      -0.611100
     23 N17         -4.6070     1.5550    -1.6720 ns         1 FWZ      -0.483900
     24 C18         -4.0040     1.8700    -2.9650 c3         1 FWZ       0.158300
     25 C19         -2.9500     2.9580    -2.8160 ca         1 FWZ      -0.145300
     26 C23         -2.2490     5.2700    -3.1440 ca         1 FWZ      -0.133000
     27 C25          0.0380     6.0660    -2.3660 cd         1 FWZ      -0.191000
     28 N27          1.1180     8.1400    -2.3920 nc         1 FWZ      -0.636000
     29 S29          1.7320     5.6050    -2.2040 ss         1 FWZ      -0.032400
     30 C31        -10.3610    -2.6290     2.1770 c          1 FWZ       0.622100
     31 C32        -11.8080    -2.1590     2.2950 cx         1 FWZ       0.033000
     32 O33         -9.8320    -3.3880     2.9810 o          1 FWZ      -0.609100
     33 F34        -12.6640    -2.7620     1.4170 f          1 FWZ      -0.231000
     34 C35        -12.3450    -1.7790     3.6600 cx         1 FWZ      -0.118400
     35 C36        -12.0580    -0.7050     2.6380 cx         1 FWZ      -0.118400
     36 O37         -1.4810     1.3940    -1.7530 os         1 FWZ      -0.343100
     37 C38         -0.2960     1.0250    -1.0300 c3         1 FWZ       0.161600
     38 C39         -0.4170    -0.4660    -0.6690 c3         1 FWZ      -0.035100
     39 C40          4.1690    -2.3080     2.5100 c3         1 FWZ       0.214100
     40 N41          4.7930    -1.2260     3.3170 n3         1 FWZ      -0.719600
     41 C42          5.3090    -0.0800     2.5020 c6         1 FWZ       0.163800
     42 C43          6.5730    -0.4520     1.6580 c6         1 FWZ       0.147800
     43 N44          7.6640    -1.0520     2.4940 nh         1 FWZ      -0.782400
     44 C45          7.1820    -2.1280     3.4200 c6         1 FWZ       0.147800
     45 C46          5.8910    -1.7180     4.2060 c6         1 FWZ       0.163800
     46 C47          9.0110    -1.1010     2.0060 ca         1 FWZ       0.234000
     47 C48          9.2650    -1.3750     0.6470 ca         1 FWZ      -0.158000
     48 C49         10.6030    -1.4170     0.1820 cp         1 FWZ       0.377500
     49 N50         11.6270    -1.2000     1.0500 nb         1 FWZ      -0.374000
     50 N51         11.4150    -0.9370     2.3560 nb         1 FWZ      -0.370000
     51 C52         10.1580    -0.8840     2.8410 ca         1 FWZ       0.513900
     52 N53         10.1000    -0.5750     4.1730 nv         1 FWZ      -1.039900
     53 C54         10.9560    -1.7130    -1.2530 cp         1 FWZ      -0.266500
     54 C55         12.1880    -2.3140    -1.6430 ca         1 FWZ       0.207100
     55 C56         12.4640    -2.5900    -2.9910 ca         1 FWZ      -0.173000
     56 C57         11.5330    -2.2710    -3.9900 ca         1 FWZ      -0.052000
     57 C58         10.3190    -1.6690    -3.6350 ca         1 FWZ      -0.170000
     58 C59         10.0330    -1.3940    -2.2880 ca         1 FWZ      -0.051000
     59 O60         13.1340    -2.6530    -0.7270 oh         1 FWZ      -0.556100
     60 C61          0.7690    -0.9520     0.1530 ca         1 FWZ      -0.083300
     61 C62          1.9590    -1.3510    -0.4830 ca         1 FWZ      -0.107500
     62 C63          3.0570    -1.7910     0.2760 ca         1 FWZ      -0.096000
     63 C64          2.9770    -1.8350     1.6820 ca         1 FWZ      -0.088300
     64 C65          1.7870    -1.4350     2.3170 ca         1 FWZ      -0.096000
     65 C66          0.6890    -0.9950     1.5580 ca         1 FWZ      -0.107500
     66 H1         -10.2100    -1.4820     0.4960 hn         1 FWZ       0.348500
     67 H2          -6.1140    -3.0570    -1.0130 hc         1 FWZ       0.041144
     68 H3          -6.2530    -4.3590     0.1930 hc         1 FWZ       0.041144
     69 H4          -6.6660    -4.6610    -1.4970 hc         1 FWZ       0.041144
     70 H5          -8.2630    -2.1210    -2.1250 hc         1 FWZ       0.041144
     71 H6          -8.7920    -3.7630    -2.5120 hc         1 FWZ       0.041144
     72 H7          -9.8600    -2.6890    -1.5970 hc         1 FWZ       0.041144
     73 H8          -8.8260    -5.5920    -0.7320 hc         1 FWZ       0.041144
     74 H9          -8.5770    -5.1740     0.9730 hc         1 FWZ       0.041144
     75 H10        -10.0280    -4.6150     0.1140 hc         1 FWZ       0.041144
     76 H11         -6.0620     1.2470     0.3600 h1         1 FWZ       0.075700
     77 H12         -5.7710    -1.4100     2.6680 h1         1 FWZ       0.060200
     78 H13         -5.5440    -2.7510     1.5180 h1         1 FWZ       0.060200
     79 H14          0.1960     3.4870    -1.5880 ha         1 FWZ       0.124000
     80 H15         -4.1590     4.4830    -3.7660 ha         1 FWZ       0.119000
     81 H16          3.1810     7.6120    -2.2000 h5         1 FWZ       0.053100
     82 H17         -7.7840    -2.8100     1.6190 h1         1 FWZ       0.087700
     83 H18         -3.3400     0.8110     0.7170 hc         1 FWZ       0.070700
     84 H19         -4.4380     0.8220     2.0920 hc         1 FWZ       0.070700
     85 H20         -3.6020    -1.6730     0.4620 h1         1 FWZ       0.062700
     86 H21         -3.0000    -2.4100     2.5560 ho         1 FWZ       0.450000
     87 H22         -4.6590     2.2930    -0.9800 hn         1 FWZ       0.316500
     88 H23         -3.5390     0.9690    -3.3880 h1         1 FWZ       0.065200
     89 H24         -4.7950     2.1950    -3.6540 h1         1 FWZ       0.065200
     90 H25         -2.4840     6.2410    -3.5600 ha         1 FWZ       0.125000
     91 H26         -1.6460     8.3640    -3.6010 hc         1 FWZ       0.053033
     92 H27         -2.1220     7.8650    -1.9550 hc         1 FWZ       0.053033
     93 H28         -1.1350     9.3050    -2.1950 hc         1 FWZ       0.053033
     94 H29        -13.3850    -2.0110     3.8770 hc         1 FWZ       0.092200
     95 H30        -11.6750    -1.8590     4.5140 hc         1 FWZ       0.092200
     96 H31        -11.1970    -0.0630     2.8070 hc         1 FWZ       0.092200
     97 H32        -12.9060    -0.2130     2.1680 hc         1 FWZ       0.092200
     98 H33          0.6010     1.1810    -1.6440 h1         1 FWZ       0.039200
     99 H34         -0.2040     1.6160    -0.1100 h1         1 FWZ       0.039200
    100 H35         -1.3510    -0.6250    -0.1180 hc         1 FWZ       0.066200
    101 H36         -0.5010    -1.0510    -1.5930 hc         1 FWZ       0.066200
    102 H37          4.9080    -2.7670     1.8400 h1         1 FWZ       0.040700
    103 H38          3.8170    -3.1060     3.1780 h1         1 FWZ       0.040700
    104 H40          4.5310     0.3100     1.8290 h1         1 FWZ       0.063450
    105 H41          5.5810     0.7510     3.1680 h1         1 FWZ       0.063450
    106 H42          6.2760    -1.1550     0.8670 h1         1 FWZ       0.049450
    107 H43          6.9370     0.4600     1.1630 h1         1 FWZ       0.049450
    108 H44          6.9740    -3.0420     2.8450 h1         1 FWZ       0.049450
    109 H45          7.9620    -2.3850     4.1510 h1         1 FWZ       0.049450
    110 H46          6.1660    -0.9280     4.9210 h1         1 FWZ       0.063450
    111 H47          5.5500    -2.5740     4.8070 h1         1 FWZ       0.063450
    112 H48          8.4440    -1.5790    -0.0290 ha         1 FWZ       0.131000
    113 H49         10.9240    -0.1480     4.5820 hn         1 FWZ       0.474500
    114 H50          9.1990    -0.2580     4.5190 hn         1 FWZ       0.474500
    115 H51         13.4080    -3.0550    -3.2640 ha         1 FWZ       0.130000
    116 H52         11.7540    -2.4850    -5.0340 ha         1 FWZ       0.114000
    117 H53          9.5960    -1.4120    -4.4060 ha         1 FWZ       0.114000
    118 H54          9.0870    -0.9130    -2.0540 ha         1 FWZ       0.101000
    119 H55         12.8470    -2.2500     0.1280 ho         1 FWZ       0.526000
    120 H56          2.0350    -1.3190    -1.5680 ha         1 FWZ       0.115500
    121 H57          3.9710    -2.0950    -0.2300 ha         1 FWZ       0.118000
    122 H58          1.7170    -1.4600     3.4030 ha         1 FWZ       0.118000
    123 H59         -0.2230    -0.6850     2.0640 ha         1 FWZ       0.115500
    124 C30         -1.3110     8.2860    -2.5600 c3         1 FWZ      -0.123400
@<TRIPOS>BOND
     1     1    15 1   
     2     1    30 1   
     3     1    66 1   
     4     2    15 1   
     5     2    17 1   
     6     2    18 2   
     7     3    16 1   
     8     3    67 1   
     9     3    68 1   
    10     3    69 1   
    11     4    16 1   
    12     4    70 1   
    13     4    71 1   
    14     4    72 1   
    15     5    16 1   
    16     5    73 1   
    17     5    74 1   
    18     5    75 1   
    19     6     8 1   
    20     6    17 1   
    21     6    19 1   
    22     6    76 1   
    23     7    17 1   
    24     7    20 1   
    25     7    77 1   
    26     7    78 1   
    27     8    22 2   
    28     8    23 1   
    29     9    10 ar  
    30     9    25 ar  
    31     9    36 1   
    32    10    11 ar  
    33    10    79 1   
    34    11    26 ar  
    35    11    27 1   
    36    12    25 ar  
    37    12    26 ar  
    38    12    80 1   
    39    13    27 2   
    40    13    28 1   
    41    13   124 1   
    42    14    28 2   
    43    14    29 1   
    44    14    81 1   
    45    15    16 1   
    46    15    82 1   
    47    19    20 1   
    48    19    83 1   
    49    19    84 1   
    50    20    21 1   
    51    20    85 1   
    52    21    86 1   
    53    23    24 1   
    54    23    87 1   
    55    24    25 1   
    56    24    88 1   
    57    24    89 1   
    58    26    90 1   
    59    27    29 1   
    60    30    31 1   
    61    30    32 2   
    62    31    33 1   
    63    31    34 1   
    64    31    35 1   
    65    34    35 1   
    66    34    94 1   
    67    34    95 1   
    68    35    96 1   
    69    35    97 1   
    70    36    37 1   
    71    37    38 1   
    72    37    98 1   
    73    37    99 1   
    74    38    60 1   
    75    38   100 1   
    76    38   101 1   
    77    39    40 1   
    78    39    63 1   
    79    39   102 1   
    80    39   103 1   
    81    40    41 1   
    82    40    45 1   
    83    41    42 1   
    84    41   104 1   
    85    41   105 1   
    86    42    43 1   
    87    42   106 1   
    88    42   107 1   
    89    43    44 1   
    90    43    46 1   
    91    44    45 1   
    92    44   108 1   
    93    44   109 1   
    94    45   110 1   
    95    45   111 1   
    96    46    47 ar  
    97    46    51 ar  
    98    47    48 ar  
    99    47   112 1   
   100    48    49 ar  
   101    48    53 1   
   102    49    50 ar  
   103    50    51 ar  
   104    51    52 1   
   105    52   113 1   
   106    52   114 1   
   107    53    54 ar  
   108    53    58 ar  
   109    54    55 ar  
   110    54    59 1   
   111    55    56 ar  
   112    55   115 1   
   113    56    57 ar  
   114    56   116 1   
   115    57    58 ar  
   116    57   117 1   
   117    58   118 1   
   118    59   119 1   
   119    60    61 ar  
   120    60    65 ar  
   121    61    62 ar  
   122    61   120 1   
   123    62    63 ar  
   124    62   121 1   
   125    63    64 ar  
   126    64    65 ar  
   127    64   122 1   
   128    65   123 1   
   129    91   124 1   
   130    92   124 1   
   131    93   124 1   
@<TRIPOS>SUBSTRUCTURE
     1 FWZ         1 TEMP              0 ****  ****    0 ROOT
