@<TRIPOS>MOLECULE
FX0
   77    80     1     0     0
SMALL
No Charge or Current Charge


@<TRIPOS>ATOM
      1 C1         105.5830   105.7460    94.5850 c3         1 FX0      -0.079100
      2 C2         105.6830   102.4920    93.2700 c3         1 FX0      -0.052100
      3 C10        106.5340   109.4500    97.5160 c6         1 FX0      -0.108400
      4 C11        110.4880   110.7130    99.2800 c6         1 FX0      -0.092700
      5 C12        110.1430   107.3830    96.0660 c5         1 FX0      -0.071400
      6 C19        106.4480   110.5390   101.2180 c6         1 FX0      -0.071400
      7 C18        108.0170   112.2020    98.0310 c3         1 FX0      -0.085100
      8 C20        107.6830   110.6530   102.1340 c6         1 FX0       0.171300
      9 C13        109.5210   106.2050    95.2540 c5         1 FX0      -0.079400
     10 C14        106.6390   111.4220    99.9640 c6         1 FX0      -0.069400
     11 C15        108.9590   110.2440   101.3670 c6         1 FX0      -0.112400
     12 C16        107.7700   108.7070    94.7500 c3         1 FX0      -0.082100
     13 C17        107.1140   105.6100    94.3780 c3         1 FX0      -0.053700
     14 C01        109.1130   109.2540    97.6390 c6         1 FX0      -0.033700
     15 C02        108.9650   107.8590    96.9520 c5         1 FX0      -0.063700
     16 C03        107.8020   109.6240    98.4280 c6         1 FX0      -0.040700
     17 C04        107.7380   107.7370    95.9870 c5         1 FX0      -0.031000
     18 C05        107.9070   111.0600    99.1080 c6         1 FX0      -0.034000
     19 C06        109.1720   111.0910   100.0600 c6         1 FX0      -0.029700
     20 C07        107.9710   106.2280    95.5480 c5         1 FX0      -0.044700
     21 C08        110.3910   109.3390    98.5360 c6         1 FX0       0.182300
     22 C09        106.4420   108.0540    96.8280 c6         1 FX0       0.184300
     23 C21        111.7820   110.8600   100.1520 c3         1 FX0      -0.077400
     24 C24        113.1110   110.7670    99.3720 c3         1 FX0      -0.093100
     25 C25        106.8590   103.4230    92.8720 c3         1 FX0      -0.194700
     26 C27        107.9000   102.6460    92.0260 c          1 FX0       0.718000
     27 O01        110.4900   108.2380    99.4490 oh         1 FX0      -0.652000
     28 O02        106.1890   107.0590    97.8300 oh         1 FX0      -0.650000
     29 O03        107.5140   109.8240   103.2870 oh         1 FX0      -0.660000
     30 O04        108.0830   103.0010    90.8700 o          1 FX0      -0.739500
     31 O05        108.4950   101.7090    92.5400 o          1 FX0      -0.739500
     32 C28        107.5260   104.1240    94.1000 c3         1 FX0      -0.049400
     33 H1         105.2780   106.7940    94.5750 hc         1 FX0       0.022033
     34 H2         105.0230   105.2780    93.7700 hc         1 FX0       0.022033
     35 H3         105.2700   105.2880    95.5310 hc         1 FX0       0.022033
     36 H6         106.0360   101.6640    93.8960 hc         1 FX0       0.009367
     37 H7         106.5020   110.2310    96.7480 hc         1 FX0       0.034700
     38 H8         105.6210   109.5890    98.1070 hc         1 FX0       0.034700
     39 H9         110.6250   111.4740    98.5010 hc         1 FX0       0.050700
     40 H10        111.0010   107.0560    96.6640 hc         1 FX0       0.030200
     41 H11        110.5040   108.1790    95.4050 hc         1 FX0       0.030200
     42 H12        105.5530   110.8670   101.7630 hc         1 FX0       0.053700
     43 H13        106.2720   109.4940   100.9330 hc         1 FX0       0.053700
     44 H14        108.1950   113.1750    98.5060 hc         1 FX0       0.031700
     45 H15        108.8270   112.0570    97.3100 hc         1 FX0       0.031700
     46 H16        107.0920   112.3060    97.4530 hc         1 FX0       0.031700
     47 H17        107.7870   111.7020   102.4490 h1         1 FX0       0.017700
     48 H18        109.9620   105.2470    95.5510 hc         1 FX0       0.055200
     49 H19        109.7370   106.3260    94.1860 hc         1 FX0       0.055200
     50 H20        106.7190   112.4660   100.3010 hc         1 FX0       0.036700
     51 H21        105.7270   111.3990    99.3540 hc         1 FX0       0.036700
     52 H22        108.8990   109.1730   101.1430 hc         1 FX0       0.053700
     53 H23        109.8180   110.3690   102.0380 hc         1 FX0       0.053700
     54 H24        107.8800   109.7570    95.0360 hc         1 FX0       0.031367
     55 H25        108.5880   108.4850    94.0560 hc         1 FX0       0.031367
     56 H26        106.8430   108.6310    94.1690 hc         1 FX0       0.031367
     57 H27        107.3480   106.1700    93.4640 hc         1 FX0       0.052700
     58 H28        109.2540   109.9820    96.8330 hc         1 FX0       0.044700
     59 H29        108.8470   107.1560    97.7860 hc         1 FX0       0.078700
     60 H30        107.7040   108.8790    99.2270 hc         1 FX0       0.069700
     61 H31        109.2970   112.1310   100.3950 hc         1 FX0       0.030700
     62 H32        107.7790   105.5720    96.4060 hc         1 FX0       0.058700
     63 H33        111.2500   109.2870    97.8520 h1         1 FX0       0.029700
     64 H34        105.5760   108.1020    96.1560 h1         1 FX0       0.033700
     65 H35        111.7630   111.8330   100.6580 hc         1 FX0       0.034700
     66 H36        111.8060   110.1090   100.9500 hc         1 FX0       0.034700
     67 H37        113.9570   110.9620   100.0410 hc         1 FX0       0.033367
     68 H38        113.2480   109.7690    98.9390 hc         1 FX0       0.033367
     69 H39        113.1390   111.5050    98.5620 hc         1 FX0       0.033367
     70 H40        106.4490   104.2060    92.2210 hc         1 FX0       0.025700
     71 H41        111.2550   108.4330   100.0270 ho         1 FX0       0.432000
     72 H42        105.3720   107.3350    98.2960 ho         1 FX0       0.429000
     73 H43        108.3020   109.9700   103.8540 ho         1 FX0       0.437000
     74 H45        107.3550   103.5240    95.0020 hc         1 FX0       0.032200
     75 H46        108.6090   104.0990    93.9350 hc         1 FX0       0.032200
     76 H4         104.9110   103.0290    93.8300 hc         1 FX0       0.009367
     77 H5         105.2160   102.0660    92.3750 hc         1 FX0       0.009367
@<TRIPOS>BOND
     1     1    13 1   
     2     1    33 1   
     3     1    34 1   
     4     1    35 1   
     5     2    25 1   
     6     2    36 1   
     7     2    76 1   
     8     2    77 1   
     9     3    16 1   
    10     3    22 1   
    11     3    37 1   
    12     3    38 1   
    13     4    19 1   
    14     4    21 1   
    15     4    23 1   
    16     4    39 1   
    17     5     9 1   
    18     5    15 1   
    19     5    40 1   
    20     5    41 1   
    21     6     8 1   
    22     6    10 1   
    23     6    42 1   
    24     6    43 1   
    25     7    18 1   
    26     7    44 1   
    27     7    45 1   
    28     7    46 1   
    29     8    11 1   
    30     8    29 1   
    31     8    47 1   
    32     9    20 1   
    33     9    48 1   
    34     9    49 1   
    35    10    18 1   
    36    10    50 1   
    37    10    51 1   
    38    11    19 1   
    39    11    52 1   
    40    11    53 1   
    41    12    17 1   
    42    12    54 1   
    43    12    55 1   
    44    12    56 1   
    45    13    20 1   
    46    13    32 1   
    47    13    57 1   
    48    14    15 1   
    49    14    16 1   
    50    14    21 1   
    51    14    58 1   
    52    15    17 1   
    53    15    59 1   
    54    16    18 1   
    55    16    60 1   
    56    17    20 1   
    57    17    22 1   
    58    18    19 1   
    59    19    61 1   
    60    20    62 1   
    61    21    27 1   
    62    21    63 1   
    63    22    28 1   
    64    22    64 1   
    65    23    24 1   
    66    23    65 1   
    67    23    66 1   
    68    24    67 1   
    69    24    68 1   
    70    24    69 1   
    71    25    26 1   
    72    25    32 1   
    73    25    70 1   
    74    26    30 1   
    75    26    31 1   
    76    27    71 1   
    77    28    72 1   
    78    29    73 1   
    79    32    74 1   
    80    32    75 1   
@<TRIPOS>SUBSTRUCTURE
     1 FX0         1 TEMP              0 ****  ****    0 ROOT
