@<TRIPOS>MOLECULE
FX0
   77    80     1     0     0
SMALL
bcc


@<TRIPOS>ATOM
      1 C1         105.6410   105.8390    94.5720 c3         1 FX0      -0.079100
      2 C2         105.7590   102.6000    93.2920 c3         1 FX0      -0.052100
      3 C10        106.5730   109.3650    97.5630 c6         1 FX0      -0.108400
      4 C11        110.4350   110.7020    99.1930 c6         1 FX0      -0.092700
      5 C12        110.1090   107.2610    96.2350 c5         1 FX0      -0.071400
      6 C19        106.4950   110.5270   101.1590 c6         1 FX0      -0.071400
      7 C18        107.9930   112.0730    97.9610 c3         1 FX0      -0.085100
      8 C20        107.7230   110.6960   102.0320 c6         1 FX0       0.148100
      9 C13        109.4730   106.1240    95.4110 c5         1 FX0      -0.079400
     10 C14        106.6640   111.3450    99.8890 c6         1 FX0      -0.069400
     11 C15        108.9680   110.2720   101.2650 c6         1 FX0      -0.112400
     12 C16        107.8090   108.6130    94.9010 c3         1 FX0      -0.082100
     13 C17        107.1500   105.6860    94.4140 c3         1 FX0      -0.053700
     14 C01        109.0970   109.2050    97.6590 c6         1 FX0      -0.033700
     15 C02        108.9470   107.8170    97.0490 c5         1 FX0      -0.063700
     16 C03        107.8160   109.5700    98.4340 c6         1 FX0      -0.040700
     17 C04        107.7360   107.6670    96.1060 c5         1 FX0      -0.031000
     18 C05        107.9050   110.9920    99.0480 c6         1 FX0      -0.034000
     19 C06        109.1520   111.0640    99.9640 c6         1 FX0      -0.029700
     20 C07        107.9380   106.2040    95.6270 c5         1 FX0      -0.044700
     21 C08        110.3610   109.3300    98.5120 c6         1 FX0       0.159100
     22 C09        106.4670   107.9840    96.9070 c6         1 FX0       0.161100
     23 C21        111.7010   110.8990   100.0340 c3         1 FX0      -0.077400
     24 C24        113.0000   110.7810    99.2450 c3         1 FX0      -0.093100
     25 C25        106.8660   103.5750    92.9100 c3         1 FX0      -0.194700
     26 C27        107.9440   102.9630    91.9820 c          1 FX0       0.928600
     27 O01        110.4070   108.2480    99.4230 oh         1 FX0      -0.589800
     28 O02        106.2620   106.9680    97.8710 oh         1 FX0      -0.587800
     29 O03        107.5430   109.9390   103.2130 oh         1 FX0      -0.597800
     30 O04        108.8050   103.7650    91.5560 o          1 FX0      -0.844800
     31 O05        107.8810   101.7450    91.7240 o          1 FX0      -0.844800
     32 C28        107.5160   104.2150    94.1590 c3         1 FX0      -0.049400
     33 H1         105.3320   106.8820    94.6220 hc         1 FX0       0.022033
     34 H2         105.1050   105.3990    93.7300 hc         1 FX0       0.022033
     35 H3         105.2910   105.3430    95.4800 hc         1 FX0       0.022033
     36 H6         106.1530   101.7560    93.8610 hc         1 FX0       0.009367
     37 H7         106.5210   110.1220    96.7770 hc         1 FX0       0.034700
     38 H8         105.6680   109.5150    98.1620 hc         1 FX0       0.034700
     39 H9         110.5190   111.4230    98.3700 hc         1 FX0       0.050700
     40 H10        110.9240   106.9060    96.8690 hc         1 FX0       0.030200
     41 H11        110.5340   108.0310    95.5850 hc         1 FX0       0.030200
     42 H12        105.6010   110.8600   101.6940 hc         1 FX0       0.053700
     43 H13        106.3500   109.4670   100.9280 hc         1 FX0       0.053700
     44 H14        108.2010   113.0440    98.4160 hc         1 FX0       0.031700
     45 H15        108.7710   111.8920    97.2200 hc         1 FX0       0.031700
     46 H16        107.0500   112.1670    97.4220 hc         1 FX0       0.031700
     47 H17        107.8160   111.7670   102.2780 h1         1 FX0       0.017700
     48 H18        109.8590   105.1510    95.7150 hc         1 FX0       0.055200
     49 H19        109.7170   106.2280    94.3500 hc         1 FX0       0.055200
     50 H20        106.7490   112.4010   100.1730 hc         1 FX0       0.036700
     51 H21        105.7620   111.2840    99.2760 hc         1 FX0       0.036700
     52 H22        108.9040   109.2010   101.0700 hc         1 FX0       0.053700
     53 H23        109.8440   110.4190   101.9040 hc         1 FX0       0.053700
     54 H24        107.9280   109.6580    95.1860 hc         1 FX0       0.031367
     55 H25        108.6400   108.3730    94.2360 hc         1 FX0       0.031367
     56 H26        106.8980   108.5510    94.3020 hc         1 FX0       0.031367
     57 H27        107.4620   106.2540    93.5270 hc         1 FX0       0.052700
     58 H28        109.2330   109.9260    96.8440 hc         1 FX0       0.044700
     59 H29        108.7750   107.1160    97.8720 hc         1 FX0       0.078700
     60 H30        107.7360   108.8550    99.2610 hc         1 FX0       0.069700
     61 H31        109.2580   112.1200   100.2570 hc         1 FX0       0.030700
     62 H32        107.6850   105.5490    96.4680 hc         1 FX0       0.058700
     63 H33        111.2160   109.2570    97.8220 h1         1 FX0       0.029700
     64 H34        105.6050   108.0260    96.2280 h1         1 FX0       0.033700
     65 H35        111.6500   111.8950   100.4850 hc         1 FX0       0.034700
     66 H36        111.7310   110.2070   100.8810 hc         1 FX0       0.034700
     67 H37        113.8550   111.0530    99.8650 hc         1 FX0       0.033367
     68 H38        113.1760   109.7670    98.8850 hc         1 FX0       0.033367
     69 H39        112.9980   111.4420    98.3760 hc         1 FX0       0.033367
     70 H40        106.4130   104.3850    92.3240 hc         1 FX0       0.025700
     71 H41        111.2020   108.3280    99.9590 ho         1 FX0       0.393000
     72 H42        105.5370   107.2410    98.4410 ho         1 FX0       0.390000
     73 H43        108.3330   110.0360   103.7540 ho         1 FX0       0.398000
     74 H45        107.2360   103.6370    95.0490 hc         1 FX0       0.032200
     75 H46        108.6000   104.1380    94.0850 hc         1 FX0       0.032200
     76 H4         105.0070   103.0870    93.9160 hc         1 FX0       0.009367
     77 H5         105.2490   102.1960    92.4170 hc         1 FX0       0.009367
@<TRIPOS>BOND
     1     1    13 1   
     2     1    33 1   
     3     1    34 1   
     4     1    35 1   
     5     2    25 1   
     6     2    36 1   
     7     2    76 1   
     8     2    77 1   
     9     3    16 1   
    10     3    22 1   
    11     3    37 1   
    12     3    38 1   
    13     4    19 1   
    14     4    21 1   
    15     4    23 1   
    16     4    39 1   
    17     5     9 1   
    18     5    15 1   
    19     5    40 1   
    20     5    41 1   
    21     6     8 1   
    22     6    10 1   
    23     6    42 1   
    24     6    43 1   
    25     7    18 1   
    26     7    44 1   
    27     7    45 1   
    28     7    46 1   
    29     8    11 1   
    30     8    29 1   
    31     8    47 1   
    32     9    20 1   
    33     9    48 1   
    34     9    49 1   
    35    10    18 1   
    36    10    50 1   
    37    10    51 1   
    38    11    19 1   
    39    11    52 1   
    40    11    53 1   
    41    12    17 1   
    42    12    54 1   
    43    12    55 1   
    44    12    56 1   
    45    13    20 1   
    46    13    32 1   
    47    13    57 1   
    48    14    15 1   
    49    14    16 1   
    50    14    21 1   
    51    14    58 1   
    52    15    17 1   
    53    15    59 1   
    54    16    18 1   
    55    16    60 1   
    56    17    20 1   
    57    17    22 1   
    58    18    19 1   
    59    19    61 1   
    60    20    62 1   
    61    21    27 1   
    62    21    63 1   
    63    22    28 1   
    64    22    64 1   
    65    23    24 1   
    66    23    65 1   
    67    23    66 1   
    68    24    67 1   
    69    24    68 1   
    70    24    69 1   
    71    25    26 1   
    72    25    32 1   
    73    25    70 1   
    74    26    30 1   
    75    26    31 1   
    76    27    71 1   
    77    28    72 1   
    78    29    73 1   
    79    32    74 1   
    80    32    75 1   
@<TRIPOS>SUBSTRUCTURE
     1 FX0         1 TEMP              0 ****  ****    0 ROOT
