@<TRIPOS>MOLECULE
FX1
   22    22     1     0     0
SMALL
bcc


@<TRIPOS>ATOM
      1 C1          -2.1260    -0.8160    -0.8190 c3         1 FX1       0.126400
      2 O1          -2.3260    -2.0940    -0.2630 oh         1 FX1      -0.590800
      3 C2          -0.8610    -0.2290    -0.2170 c5         1 FX1       0.341600
      4 O2          -0.8940    -0.2410     1.1680 oh         1 FX1      -0.588800
      5 C3          -0.5700     1.2050    -0.6550 c5         1 FX1       0.025100
      6 O3          -1.3010     2.1540     0.0430 oh         1 FX1      -0.546800
      7 C4           0.9270     1.2510    -0.4270 c          1 FX1       0.525100
      8 O4           1.5760     2.2180    -0.1320 o          1 FX1      -0.480100
      9 C5           1.4320    -0.1640    -0.6130 c5         1 FX1       0.039100
     10 O5           0.2530    -0.9450    -0.7230 os         1 FX1      -0.396600
     11 C6           2.3570    -0.6060     0.5040 c3         1 FX1       0.133400
     12 O6           2.8070    -1.9050     0.2090 oh         1 FX1      -0.586800
     13 H1          -2.0260    -0.8540    -1.9100 h1         1 FX1       0.047200
     14 H1A         -2.9540    -0.1370    -0.5890 h1         1 FX1       0.047200
     15 HO1         -3.2700    -2.2640    -0.2080 ho         1 FX1       0.413000
     16 HO2         -1.2340    -1.0990     1.4560 ho         1 FX1       0.434000
     17 H3          -0.7270     1.2580    -1.7460 h1         1 FX1       0.061700
     18 HO3         -1.1970     3.0050    -0.3950 ho         1 FX1       0.418000
     19 H5           1.9750    -0.2240    -1.5650 h1         1 FX1       0.096700
     20 H6           3.1850     0.1120     0.5530 h1         1 FX1       0.038200
     21 H6A          1.8290    -0.5620     1.4630 h1         1 FX1       0.038200
     22 HO6          3.3800    -2.1900     0.9260 ho         1 FX1       0.406000
@<TRIPOS>BOND
     1     1     2 1   
     2     1     3 1   
     3     1    13 1   
     4     1    14 1   
     5     2    15 1   
     6     3     4 1   
     7     3     5 1   
     8     3    10 1   
     9     4    16 1   
    10     5     6 1   
    11     5     7 1   
    12     5    17 1   
    13     6    18 1   
    14     7     8 2   
    15     7     9 1   
    16     9    10 1   
    17     9    11 1   
    18     9    19 1   
    19    11    12 1   
    20    11    20 1   
    21    11    21 1   
    22    12    22 1   
@<TRIPOS>SUBSTRUCTURE
     1 FX1         1 TEMP              0 ****  ****    0 ROOT
