@<TRIPOS>MOLECULE
FX1
   22    22     1     0     0
SMALL
No Charge or Current Charge


@<TRIPOS>ATOM
      1 C1          -2.2240    -0.8170    -0.6560 c3         1 FX1       0.149600
      2 O1          -2.5050    -1.9830     0.1610 oh         1 FX1      -0.713000
      3 C2          -0.8470    -0.1800    -0.2780 c5         1 FX1       0.388000
      4 O2          -0.7870    -0.1130     1.1360 oh         1 FX1      -0.651000
      5 C3          -0.5450     1.2070    -0.9310 c5         1 FX1       0.048300
      6 O3          -1.2350     2.3210    -0.2970 oh         1 FX1      -0.669000
      7 C4           1.0030     1.2860    -0.8170 c          1 FX1       0.525100
      8 O4           1.6640     2.2610    -0.4680 o          1 FX1      -0.480100
      9 C5           1.4510    -0.1960    -0.7720 c5         1 FX1       0.062300
     10 O5           0.2340    -1.0030    -0.7580 os         1 FX1      -0.443000
     11 C6           2.3670    -0.4920     0.4510 c3         1 FX1       0.156600
     12 O6           2.9700    -1.7940     0.3340 oh         1 FX1      -0.709000
     13 H1          -2.2030    -1.0860    -1.7210 h1         1 FX1       0.047200
     14 H1A         -3.0100    -0.0600    -0.5250 h1         1 FX1       0.047200
     15 HO1         -3.3140    -2.4100    -0.2090 ho         1 FX1       0.512000
     16 HO2         -1.2790    -0.9280     1.3940 ho         1 FX1       0.473000
     17 H3          -0.7840     1.1740    -2.0030 h1         1 FX1       0.061700
     18 HO3         -1.1470     2.1850     0.6780 ho         1 FX1       0.517000
     19 H5           2.0050    -0.4050    -1.6960 h1         1 FX1       0.096700
     20 H6           3.1530     0.2740     0.4960 h1         1 FX1       0.038200
     21 H6A          1.7840    -0.4160     1.3790 h1         1 FX1       0.038200
     22 HO6          3.4830    -1.9510     1.1610 ho         1 FX1       0.505000
@<TRIPOS>BOND
     1     1     2 1   
     2     1     3 1   
     3     1    13 1   
     4     1    14 1   
     5     2    15 1   
     6     3     4 1   
     7     3     5 1   
     8     3    10 1   
     9     4    16 1   
    10     5     6 1   
    11     5     7 1   
    12     5    17 1   
    13     6    18 1   
    14     7     8 2   
    15     7     9 1   
    16     9    10 1   
    17     9    11 1   
    18     9    19 1   
    19    11    12 1   
    20    11    20 1   
    21    11    21 1   
    22    12    22 1   
@<TRIPOS>SUBSTRUCTURE
     1 FX1         1 TEMP              0 ****  ****    0 ROOT
