@<TRIPOS>MOLECULE
FX2
   49    52     1     0     0
SMALL
No Charge or Current Charge


@<TRIPOS>ATOM
      1 C7          -2.3120     0.7550     1.3440 ce         1 FX2       0.569900
      2 C6          -3.7360     2.3360     0.0280 c          1 FX2       0.600700
      3 C1          -6.2840     0.1280    -1.7500 ca         1 FX2      -0.223000
      4 C2          -5.8270    -1.1520    -1.3640 ca         1 FX2       0.176100
      5 C3          -4.6930    -1.2640    -0.5460 ca         1 FX2      -0.144000
      6 C4          -4.0230    -0.1160    -0.1050 ca         1 FX2       0.215400
      7 C5          -4.4810     1.1510    -0.4760 ca         1 FX2      -0.253600
      8 C9          -7.6170    -2.3080    -2.6100 c3         1 FX2       0.148900
      9 C12         -0.0630    -0.3140     1.8700 cd         1 FX2      -0.097000
     10 C17          4.4660    -1.4210    -0.7590 ca         1 FX2       0.104100
     11 C18          4.2690    -2.4460     0.1800 ca         1 FX2      -0.103000
     12 C19          3.5550    -2.2040     1.3670 ca         1 FX2      -0.075000
     13 C20          5.4660    -0.8010    -2.9610 c3         1 FX2       0.515000
     14 C21         -3.9530     2.2760     2.5290 c3         1 FX2      -0.075100
     15 F2           6.1750    -1.3970    -3.9450 f          1 FX2      -0.108333
     16 F            6.2010     0.2490    -2.5280 f          1 FX2      -0.108333
     17 F1           4.3380    -0.3140    -3.5300 f          1 FX2      -0.108333
     18 O2           5.1790    -1.7370    -1.9020 os         1 FX2      -0.402100
     19 C16          3.9390    -0.1350    -0.4980 ca         1 FX2      -0.103000
     20 C15          3.2240     0.1060     0.6890 ca         1 FX2      -0.075000
     21 C14          3.0230    -0.9270     1.6270 ca         1 FX2      -0.110300
     22 N2           0.9810     0.0630     2.7180 na         1 FX2       0.128800
     23 N1           0.7160     1.2440     3.3920 nd         1 FX2      -0.525800
     24 C11         -0.4770     1.5630     2.9390 cc         1 FX2       0.271900
     25 C10         -1.0130     0.6620     2.0010 cc         1 FX2      -0.283900
     26 C8          -2.9690     2.1330     1.3280 c6         1 FX2      -0.261000
     27 O           -3.6850     3.3890    -0.5930 o          1 FX2      -0.527100
     28 C           -5.6080     1.2790    -1.3090 ca         1 FX2       0.000000
     29 N           -2.8540    -0.2330     0.6750 nf         1 FX2      -0.606100
     30 O1          -6.4500    -2.3150    -1.7690 os         1 FX2      -0.338100
     31 H1          -7.1550     0.2490    -2.3870 ha         1 FX2       0.123000
     32 H2          -4.3300    -2.2460    -0.2590 ha         1 FX2       0.142000
     33 H3          -8.4430    -1.7720    -2.1270 h1         1 FX2       0.044700
     34 H4          -7.4010    -1.8290    -3.5740 h1         1 FX2       0.044700
     35 H5          -7.9480    -3.3350    -2.8080 h1         1 FX2       0.044700
     36 H6          -0.0390    -1.2130     1.2630 h4         1 FX2       0.171000
     37 H7           4.6740    -3.4360    -0.0130 ha         1 FX2       0.138500
     38 H8           3.4150    -3.0140     2.0800 ha         1 FX2       0.127000
     39 H9          -3.4340     2.1590     3.4880 hc         1 FX2       0.048700
     40 H10         -4.4330     3.2630     2.5340 hc         1 FX2       0.048700
     41 H11         -4.7490     1.5210     2.4920 hc         1 FX2       0.048700
     42 H12          4.0690     0.6870    -1.1940 ha         1 FX2       0.138500
     43 H13          2.8270     1.1020     0.8780 ha         1 FX2       0.127000
     44 H14          2.0110    -1.6190     3.4090 h1         1 FX2       0.074200
     45 H15          2.8800    -0.0920     3.6040 h1         1 FX2       0.074200
     46 H16         -0.9380     2.4660     3.3180 h4         1 FX2       0.043100
     47 H17         -2.2290     2.9390     1.4070 hc         1 FX2       0.093700
     48 H18         -5.9650     2.2640    -1.6070 ha         1 FX2       0.131000
     49 C13          2.2470    -0.6670     2.9180 c3         1 FX2       0.134900
@<TRIPOS>BOND
     1     1    25 1   
     2     1    26 1   
     3     1    29 2   
     4     2     7 1   
     5     2    26 1   
     6     2    27 2   
     7     3     4 ar  
     8     3    28 ar  
     9     3    31 1   
    10     4     5 ar  
    11     4    30 1   
    12     5     6 ar  
    13     5    32 1   
    14     6     7 ar  
    15     6    29 1   
    16     7    28 ar  
    17     8    30 1   
    18     8    33 1   
    19     8    34 1   
    20     8    35 1   
    21     9    22 1   
    22     9    25 2   
    23     9    36 1   
    24    10    11 ar  
    25    10    18 1   
    26    10    19 ar  
    27    11    12 ar  
    28    11    37 1   
    29    12    21 ar  
    30    12    38 1   
    31    13    15 1   
    32    13    16 1   
    33    13    17 1   
    34    13    18 1   
    35    14    26 1   
    36    14    39 1   
    37    14    40 1   
    38    14    41 1   
    39    19    20 ar  
    40    19    42 1   
    41    20    21 ar  
    42    20    43 1   
    43    21    49 1   
    44    22    23 1   
    45    22    49 1   
    46    23    24 2   
    47    24    25 1   
    48    24    46 1   
    49    26    47 1   
    50    28    48 1   
    51    44    49 1   
    52    45    49 1   
@<TRIPOS>SUBSTRUCTURE
     1 FX2         1 TEMP              0 ****  ****    0 ROOT
