@<TRIPOS>MOLECULE
FX2
   49    52     1     0     0
SMALL
abcg2


@<TRIPOS>ATOM
      1 C7          -2.4840     0.8420     0.8040 ce         1 FX2       0.569900
      2 C6          -4.3050     2.2660    -0.2110 c          1 FX2       0.600700
      3 C1          -6.8630    -0.2650    -1.3010 ca         1 FX2      -0.223000
      4 C2          -6.2320    -1.4550    -0.9160 ca         1 FX2       0.176100
      5 C3          -4.9700    -1.4150    -0.3250 ca         1 FX2      -0.144000
      6 C4          -4.3370    -0.2030    -0.0900 ca         1 FX2       0.215400
      7 C5          -4.9750     0.9960    -0.4630 ca         1 FX2      -0.253600
      8 C9          -8.0400    -2.7860    -1.6880 c3         1 FX2       0.148900
      9 C12         -0.3950    -0.3730     1.5810 cd         1 FX2      -0.097000
     10 C17          4.8090    -0.5960    -0.7690 ca         1 FX2       0.104100
     11 C18          3.8530    -1.5970    -0.7880 ca         1 FX2      -0.103000
     12 C19          2.9310    -1.6610     0.2450 ca         1 FX2      -0.075000
     13 C20          6.8750    -1.1270    -1.7250 c3         1 FX2       0.515000
     14 C21         -3.6200     2.6090     2.1290 c3         1 FX2      -0.075100
     15 F2           7.5520    -0.9080    -2.8410 f          1 FX2      -0.108333
     16 F            6.7370    -2.4450    -1.5690 f          1 FX2      -0.108333
     17 F1           7.6070    -0.6930    -0.6980 f          1 FX2      -0.108333
     18 O2           5.7010    -0.4930    -1.8310 os         1 FX2      -0.402100
     19 C16          4.8610     0.3360     0.2540 ca         1 FX2      -0.103000
     20 C15          3.9320     0.2570     1.2790 ca         1 FX2      -0.075000
     21 C14          2.9630    -0.7410     1.2870 ca         1 FX2      -0.110300
     22 N2           0.7820     0.0310     2.0640 na         1 FX2       0.128800
     23 N1           0.8790     1.3590     2.1500 nd         1 FX2      -0.525800
     24 C11         -0.2730     1.8210     1.7180 cc         1 FX2       0.271900
     25 C10         -1.1390     0.7710     1.3370 cc         1 FX2      -0.283900
     26 C8          -3.1210     2.2020     0.7250 c6         1 FX2      -0.261000
     27 O           -4.6970     3.3310    -0.6500 o          1 FX2      -0.527100
     28 C           -6.2240     0.9380    -1.0760 ca         1 FX2       0.000000
     29 N           -3.0650    -0.2490     0.4650 nf         1 FX2      -0.606100
     30 O1          -6.7640    -2.6700    -1.0820 os         1 FX2      -0.338100
     31 H1          -7.8380    -0.2670    -1.7690 ha         1 FX2       0.123000
     32 H2          -4.4720    -2.3360    -0.0510 ha         1 FX2       0.142000
     33 H3          -8.8100    -2.2670    -1.1140 h1         1 FX2       0.044700
     34 H4          -8.0390    -2.4030    -2.7110 h1         1 FX2       0.044700
     35 H5          -8.2720    -3.8480    -1.7090 h1         1 FX2       0.044700
     36 H6          -0.6380    -1.4140     1.4460 h4         1 FX2       0.171000
     37 H7           3.8160    -2.3090    -1.6020 ha         1 FX2       0.138500
     38 H8           2.1830    -2.4440     0.2340 ha         1 FX2       0.127000
     39 H9          -2.8030     2.5960     2.8480 hc         1 FX2       0.048700
     40 H10         -4.0300     3.6170     2.0990 hc         1 FX2       0.048700
     41 H11         -4.3950     1.9310     2.4850 hc         1 FX2       0.048700
     42 H12          5.6030     1.1230     0.2470 ha         1 FX2       0.138500
     43 H13          3.9660     0.9850     2.0800 ha         1 FX2       0.127000
     44 H14          1.5740    -1.8110     2.5340 h1         1 FX2       0.074200
     45 H15          2.3430    -0.4450     3.3290 h1         1 FX2       0.074200
     46 H16         -0.4550     2.8850     1.6940 h4         1 FX2       0.043100
     47 H17         -2.3800     2.9360     0.3990 hc         1 FX2       0.093700
     48 H18         -6.7130     1.8580    -1.3720 ha         1 FX2       0.131000
     49 C13          1.9320    -0.7940     2.3830 c3         1 FX2       0.134900
@<TRIPOS>BOND
     1     1    25 1   
     2     1    26 1   
     3     1    29 2   
     4     2     7 1   
     5     2    26 1   
     6     2    27 2   
     7     3     4 ar  
     8     3    28 ar  
     9     3    31 1   
    10     4     5 ar  
    11     4    30 1   
    12     5     6 ar  
    13     5    32 1   
    14     6     7 ar  
    15     6    29 1   
    16     7    28 ar  
    17     8    30 1   
    18     8    33 1   
    19     8    34 1   
    20     8    35 1   
    21     9    22 1   
    22     9    25 2   
    23     9    36 1   
    24    10    11 ar  
    25    10    18 1   
    26    10    19 ar  
    27    11    12 ar  
    28    11    37 1   
    29    12    21 ar  
    30    12    38 1   
    31    13    15 1   
    32    13    16 1   
    33    13    17 1   
    34    13    18 1   
    35    14    26 1   
    36    14    39 1   
    37    14    40 1   
    38    14    41 1   
    39    19    20 ar  
    40    19    42 1   
    41    20    21 ar  
    42    20    43 1   
    43    21    49 1   
    44    22    23 1   
    45    22    49 1   
    46    23    24 2   
    47    24    25 1   
    48    24    46 1   
    49    26    47 1   
    50    28    48 1   
    51    44    49 1   
    52    45    49 1   
@<TRIPOS>SUBSTRUCTURE
     1 FX2         1 TEMP              0 ****  ****    0 ROOT
