@<TRIPOS>MOLECULE
FX3
   41    42     1     0     0
SMALL
No Charge or Current Charge


@<TRIPOS>ATOM
      1 O2          -4.3770   -28.5440     3.0650 o          1 FX3      -0.432000
      2 C9          -3.3290   -28.0040     2.7460 c          1 FX3       0.613300
      3 C8          -2.8790   -26.7010     3.3070 ce         1 FX3      -0.327200
      4 C7          -1.7220   -26.0420     2.9900 cf         1 FX3      -0.079200
      5 C1          -1.2080   -24.7530     3.5010 ca         1 FX3      -0.090800
      6 C6           0.0260   -24.2680     3.0200 ca         1 FX3      -0.075000
      7 C5           0.5440   -23.0470     3.4830 ca         1 FX3      -0.132000
      8 C4          -0.1660   -22.2990     4.4310 ca         1 FX3       0.139100
      9 O4           0.3380   -21.1130     4.8800 oh         1 FX3      -0.529100
     10 C3          -1.4010   -22.7640     4.9260 ca         1 FX3       0.040100
     11 O3          -2.0610   -21.9850     5.8620 os         1 FX3      -0.376100
     12 C10         -3.3280   -22.3700     6.4300 c3         1 FX3       0.157900
     13 C2          -1.9190   -23.9940     4.4570 ca         1 FX3      -0.122000
     14 O5          -2.4370   -28.5180     1.8430 os         1 FX3      -0.491100
     15 C12         -2.7580   -29.7790     1.2190 c3         1 FX3       0.177600
     16 C13         -1.6120   -30.1570     0.2370 c5         1 FX3       0.156300
     17 O6          -1.5350   -29.2050    -0.8580 os         1 FX3      -0.486000
     18 C14         -1.8270   -31.5600    -0.4520 c5         1 FX3       0.127300
     19 O7          -0.7180   -32.4500    -0.2990 oh         1 FX3      -0.717000
     20 C15         -1.9550   -31.2080    -1.9740 c5         1 FX3       0.113300
     21 O1          -0.6760   -31.3550    -2.6400 oh         1 FX3      -0.710000
     22 C11         -2.3720   -29.7050    -1.8920 c5         1 FX3       0.351300
     23 OXT         -2.0670   -29.0040    -3.0840 oh         1 FX3      -0.738000
     24 H8          -3.5680   -26.2750     4.0290 ha         1 FX3       0.199000
     25 H7          -1.0620   -26.5130     2.2560 ha         1 FX3       0.196000
     26 H6           0.5890   -24.8370     2.2830 ha         1 FX3       0.122000
     27 H2          -2.8680   -24.3610     4.8310 ha         1 FX3       0.121000
     28 H5           1.4960   -22.6810     3.1060 ha         1 FX3       0.136000
     29 H4          -0.3150   -20.7660     5.5290 ho         1 FX3       0.485000
     30 H101        -4.0930   -22.4670     5.6490 h1         1 FX3       0.046367
     31 H102        -3.2440   -23.3260     6.9630 h1         1 FX3       0.046367
     32 H103        -3.6700   -21.6120     7.1470 h1         1 FX3       0.046367
     33 H5'1        -2.8490   -30.5690     1.9760 h1         1 FX3       0.061200
     34 H5'2        -3.7090   -29.7180     0.6730 h1         1 FX3       0.061200
     35 H11         -0.6660   -30.1300     0.7950 h1         1 FX3       0.094700
     36 H3          -2.7510   -32.0310    -0.0860 h1         1 FX3       0.077700
     37 H1          -3.4320   -29.5940    -1.6210 h2         1 FX3       0.067700
     38 HA          -0.2560   -32.3330    -1.1740 ho         1 FX3       0.521000
     39 H9          -2.7350   -31.8080    -2.4660 h1         1 FX3       0.098700
     40 HB          -0.6030   -30.5240    -3.1760 ho         1 FX3       0.529000
     41 HOT         -2.0050   -28.0630    -2.8030 ho         1 FX3       0.521000
@<TRIPOS>BOND
     1     1     2 2   
     2     2     3 1   
     3     2    14 1   
     4     3     4 2   
     5     3    24 1   
     6     4     5 1   
     7     4    25 1   
     8     5     6 ar  
     9     5    13 ar  
    10     6     7 ar  
    11     6    26 1   
    12     7     8 ar  
    13     7    28 1   
    14     8     9 1   
    15     8    10 ar  
    16     9    29 1   
    17    10    11 1   
    18    10    13 ar  
    19    11    12 1   
    20    12    30 1   
    21    12    31 1   
    22    12    32 1   
    23    13    27 1   
    24    14    15 1   
    25    15    16 1   
    26    15    33 1   
    27    15    34 1   
    28    16    17 1   
    29    16    18 1   
    30    16    35 1   
    31    17    22 1   
    32    18    19 1   
    33    18    20 1   
    34    18    36 1   
    35    19    38 1   
    36    20    21 1   
    37    20    22 1   
    38    20    39 1   
    39    21    40 1   
    40    22    23 1   
    41    22    37 1   
    42    23    41 1   
@<TRIPOS>SUBSTRUCTURE
     1 FX3         1 TEMP              0 ****  ****    0 ROOT
