@<TRIPOS>MOLECULE
FX3
   41    42     1     0     0
SMALL
abcg2


@<TRIPOS>ATOM
      1 O2          -5.4740   -28.1840     2.0770 o          1 FX3      -0.432000
      2 C9          -4.2600   -28.1650     2.1690 c          1 FX3       0.613300
      3 C8          -3.5590   -27.0680     2.8420 ce         1 FX3      -0.327200
      4 C7          -2.3520   -26.6040     2.4730 cf         1 FX3      -0.079200
      5 C1          -1.6720   -25.4260     2.9800 ca         1 FX3      -0.090800
      6 C6          -0.4150   -25.1110     2.4540 ca         1 FX3      -0.075000
      7 C5           0.2850   -23.9930     2.8900 ca         1 FX3      -0.132000
      8 C4          -0.2640   -23.1720     3.8600 ca         1 FX3       0.139100
      9 O4           0.4120   -22.0770     4.2840 oh         1 FX3      -0.529100
     10 C3          -1.5310   -23.4760     4.4050 ca         1 FX3       0.040100
     11 O3          -1.9560   -22.5900     5.3460 os         1 FX3      -0.376100
     12 C10         -3.2220   -22.8170     5.9690 c3         1 FX3       0.157900
     13 C2          -2.2230   -24.5880     3.9700 ca         1 FX3      -0.122000
     14 O5          -3.5720   -29.1600     1.5530 os         1 FX3      -0.491100
     15 C12         -2.3690   -29.7490     2.0890 c3         1 FX3       0.177600
     16 C13         -1.3780   -30.0060     0.9760 c5         1 FX3       0.156300
     17 O6          -0.8250   -28.7490     0.5180 os         1 FX3      -0.486000
     18 C14         -1.9610   -30.7010    -0.2540 c5         1 FX3       0.127300
     19 O7          -1.0320   -31.6720    -0.7200 oh         1 FX3      -0.717000
     20 C15         -2.1240   -29.5440    -1.2610 c5         1 FX3       0.113300
     21 O1          -2.0610   -29.9570    -2.6080 oh         1 FX3      -0.710000
     22 C11         -1.0080   -28.5650    -0.8660 c5         1 FX3       0.351300
     23 OXT          0.1510   -28.8860    -1.6060 oh         1 FX3      -0.738000
     24 H8          -4.1680   -26.5540     3.5740 ha         1 FX3       0.199000
     25 H7          -1.8130   -27.1330     1.6960 ha         1 FX3       0.196000
     26 H6           0.0170   -25.7500     1.6940 ha         1 FX3       0.122000
     27 H2          -3.1920   -24.8140     4.3880 ha         1 FX3       0.121000
     28 H5           1.2580   -23.7480     2.4830 ha         1 FX3       0.136000
     29 H4          -0.1210   -21.6260     4.9580 ho         1 FX3       0.485000
     30 H101        -4.0240   -22.7970     5.2290 h1         1 FX3       0.046367
     31 H102        -3.2270   -23.7760     6.4920 h1         1 FX3       0.046367
     32 H103        -3.3540   -22.0060     6.6800 h1         1 FX3       0.046367
     33 H5'1        -1.9300   -29.1120     2.8530 h1         1 FX3       0.061200
     34 H5'2        -2.6530   -30.7010     2.5410 h1         1 FX3       0.061200
     35 H11         -0.5680   -30.6130     1.3890 h1         1 FX3       0.094700
     36 H3          -2.9210   -31.1720    -0.0350 h1         1 FX3       0.077700
     37 H1          -1.2710   -27.5190    -1.0260 h2         1 FX3       0.067700
     38 HA          -1.2600   -31.8580    -1.6430 ho         1 FX3       0.521000
     39 H9          -3.0880   -29.0640    -1.0900 h1         1 FX3       0.098700
     40 HB          -1.1400   -29.8370    -2.8920 ho         1 FX3       0.529000
     41 HOT          0.6870   -28.0920    -1.7220 ho         1 FX3       0.521000
@<TRIPOS>BOND
     1     1     2 2   
     2     2     3 1   
     3     2    14 1   
     4     3     4 2   
     5     3    24 1   
     6     4     5 1   
     7     4    25 1   
     8     5     6 ar  
     9     5    13 ar  
    10     6     7 ar  
    11     6    26 1   
    12     7     8 ar  
    13     7    28 1   
    14     8     9 1   
    15     8    10 ar  
    16     9    29 1   
    17    10    11 1   
    18    10    13 ar  
    19    11    12 1   
    20    12    30 1   
    21    12    31 1   
    22    12    32 1   
    23    13    27 1   
    24    14    15 1   
    25    15    16 1   
    26    15    33 1   
    27    15    34 1   
    28    16    17 1   
    29    16    18 1   
    30    16    35 1   
    31    17    22 1   
    32    18    19 1   
    33    18    20 1   
    34    18    36 1   
    35    19    38 1   
    36    20    21 1   
    37    20    22 1   
    38    20    39 1   
    39    21    40 1   
    40    22    23 1   
    41    22    37 1   
    42    23    41 1   
@<TRIPOS>SUBSTRUCTURE
     1 FX3         1 TEMP              0 ****  ****    0 ROOT
