@<TRIPOS>MOLECULE
FX4
   36    37     1     0     0
SMALL
abcg2


@<TRIPOS>ATOM
      1 O1           4.9210    -0.3480    -1.6180 o          1 FX4      -0.723000
      2 C2           5.7140    -0.2790    -0.6670 c          1 FX4       0.719000
      3 O3           6.9510    -0.4060    -0.6750 o          1 FX4      -0.723000
      4 C4           5.1120     0.0080     0.7290 c3         1 FX4      -0.059000
      5 N5           3.6680     0.1000     0.6900 n          1 FX4      -0.329400
      6 C6           3.0620     1.2630     0.3050 c          1 FX4       0.612600
      7 O10          3.6000     2.3240     0.1350 o          1 FX4      -0.488000
      8 S7           1.3150     1.0230     0.1140 ss         1 FX4      -0.219200
      9 C9           2.8790    -1.0280     0.7250 c          1 FX4       0.587200
     10 O11          3.3070    -2.1360     0.9560 o          1 FX4      -0.522000
     11 C8           1.4650    -0.6870     0.4670 cc         1 FX4      -0.093600
     12 C12          0.5120    -1.6340     0.4870 cf         1 FX4      -0.065200
     13 C13         -0.9160    -1.5520     0.2730 ca         1 FX4      -0.059800
     14 C14         -1.6110    -2.7490     0.1300 ca         1 FX4      -0.121000
     15 C15         -2.9810    -2.7590    -0.0960 ca         1 FX4      -0.193000
     16 C16         -3.6880    -1.5700    -0.1660 ca         1 FX4       0.095100
     17 O24         -5.0050    -1.4710    -0.3730 os         1 FX4      -0.297100
     18 C25         -5.7510    -2.6620    -0.5460 c3         1 FX4       0.150900
     19 C18         -1.6390    -0.3470     0.2100 ca         1 FX4      -0.167000
     20 C17         -3.0040    -0.3400    -0.0020 ca         1 FX4       0.142100
     21 O19         -3.7710     0.7550    -0.0630 os         1 FX4      -0.282100
     22 C20         -3.1510     2.0190     0.0790 c3         1 FX4      -0.003400
     23 C21         -4.1880     3.1510    -0.0100 c          1 FX4       0.730000
     24 O22         -5.3810     2.8480    -0.1540 o          1 FX4      -0.717500
     25 O23         -3.6870     4.2880     0.0820 o          1 FX4      -0.717500
     26 H4           5.3860    -0.7790     1.4300 h1         1 FX4       0.048200
     27 H4A          5.5110     0.9410     1.1270 h1         1 FX4       0.048200
     28 H12          0.8810    -2.6350     0.6860 ha         1 FX4       0.185000
     29 H14         -1.0800    -3.6900     0.1890 ha         1 FX4       0.099000
     30 H15         -3.4840    -3.7090    -0.2130 ha         1 FX4       0.097000
     31 H25         -6.7850    -2.3580    -0.6880 h1         1 FX4       0.026033
     32 H25A        -5.4230    -3.2210    -1.4260 h1         1 FX4       0.026033
     33 H25B        -5.6890    -3.3110     0.3310 h1         1 FX4       0.026033
     34 H18         -1.1360     0.5960     0.3660 ha         1 FX4       0.141000
     35 H20         -2.6340     2.0880     1.0440 h1         1 FX4       0.024200
     36 H20A        -2.3940     2.1640    -0.7030 h1         1 FX4       0.024200
@<TRIPOS>BOND
     1     1     2 1   
     2     2     3 1   
     3     2     4 1   
     4     4     5 1   
     5     4    26 1   
     6     4    27 1   
     7     5     6 1   
     8     5     9 1   
     9     6     7 2   
    10     6     8 1   
    11     8    11 1   
    12     9    10 2   
    13     9    11 1   
    14    11    12 2   
    15    12    13 1   
    16    12    28 1   
    17    13    14 ar  
    18    13    19 ar  
    19    14    15 ar  
    20    14    29 1   
    21    15    16 ar  
    22    15    30 1   
    23    16    17 1   
    24    16    20 ar  
    25    17    18 1   
    26    18    31 1   
    27    18    32 1   
    28    18    33 1   
    29    19    20 ar  
    30    19    34 1   
    31    20    21 1   
    32    21    22 1   
    33    22    23 1   
    34    22    35 1   
    35    22    36 1   
    36    23    24 1   
    37    23    25 1   
@<TRIPOS>SUBSTRUCTURE
     1 FX4         1 TEMP              0 ****  ****    0 ROOT
