@<TRIPOS>MOLECULE
FX4
   36    37     1     0     0
SMALL
No Charge or Current Charge


@<TRIPOS>ATOM
      1 O1           5.6000    -0.1590    -1.6150 o          1 FX4      -0.723000
      2 C2           5.9660    -0.5310    -0.5080 c          1 FX4       0.719000
      3 O3           6.8670    -1.3390    -0.3330 o          1 FX4      -0.723000
      4 C4           5.2520     0.0480     0.7370 c3         1 FX4      -0.059000
      5 N5           3.7650     0.1580     0.6120 n          1 FX4      -0.329400
      6 C6           3.1370     1.4030     0.5770 c          1 FX4       0.612600
      7 O10          3.6930     2.4900     0.6550 o          1 FX4      -0.488000
      8 S7           1.3530     1.1460     0.4010 ss         1 FX4      -0.219200
      9 C9           2.9790    -0.9890     0.5100 c          1 FX4       0.587200
     10 O11          3.4210    -2.1320     0.5340 o          1 FX4      -0.522000
     11 C8           1.5550    -0.6020     0.3810 cc         1 FX4      -0.093600
     12 C12          0.5490    -1.5340     0.2640 cf         1 FX4      -0.065200
     13 C13         -0.9310    -1.5090     0.1280 ca         1 FX4      -0.059800
     14 C14         -1.6090    -2.7410     0.0310 ca         1 FX4      -0.121000
     15 C15         -3.0060    -2.7930    -0.0990 ca         1 FX4      -0.193000
     16 C16         -3.7610    -1.6020    -0.1350 ca         1 FX4       0.095100
     17 O24         -5.1410    -1.6160    -0.2620 os         1 FX4      -0.297100
     18 C25         -5.8940    -2.8360    -0.3660 c3         1 FX4       0.150900
     19 C18         -1.6900    -0.3190     0.0920 ca         1 FX4      -0.167000
     20 C17         -3.0980    -0.3570    -0.0380 ca         1 FX4       0.142100
     21 O19         -3.8590     0.8010    -0.0750 os         1 FX4      -0.282100
     22 C20         -3.2760     2.1240     0.0170 c3         1 FX4      -0.003400
     23 C21         -4.3310     3.2670    -0.0470 c          1 FX4       0.730000
     24 O22         -5.5190     2.9910    -0.1640 o          1 FX4      -0.717500
     25 O23         -3.9210     4.4190     0.0240 o          1 FX4      -0.717500
     26 H4           5.4820    -0.5970     1.5940 h1         1 FX4       0.048200
     27 H4A          5.6920     1.0310     0.9390 h1         1 FX4       0.048200
     28 H12          0.9370    -2.5540     0.2780 ha         1 FX4       0.185000
     29 H14         -1.0510    -3.6740     0.0560 ha         1 FX4       0.099000
     30 H15         -3.4820    -3.7670    -0.1700 ha         1 FX4       0.097000
     31 H25         -6.9640    -2.6130    -0.4590 h1         1 FX4       0.026033
     32 H25A        -5.5870    -3.4080    -1.2510 h1         1 FX4       0.026033
     33 H25B        -5.7510    -3.4580     0.5260 h1         1 FX4       0.026033
     34 H18         -1.1930     0.6350     0.1660 ha         1 FX4       0.141000
     35 H20         -2.7300     2.2320     0.9630 h1         1 FX4       0.024200
     36 H20A        -2.5680     2.2830    -0.8070 h1         1 FX4       0.024200
@<TRIPOS>BOND
     1     1     2 1   
     2     2     3 1   
     3     2     4 1   
     4     4     5 1   
     5     4    26 1   
     6     4    27 1   
     7     5     6 1   
     8     5     9 1   
     9     6     7 2   
    10     6     8 1   
    11     8    11 1   
    12     9    10 2   
    13     9    11 1   
    14    11    12 2   
    15    12    13 1   
    16    12    28 1   
    17    13    14 ar  
    18    13    19 ar  
    19    14    15 ar  
    20    14    29 1   
    21    15    16 ar  
    22    15    30 1   
    23    16    17 1   
    24    16    20 ar  
    25    17    18 1   
    26    18    31 1   
    27    18    32 1   
    28    18    33 1   
    29    19    20 ar  
    30    19    34 1   
    31    20    21 1   
    32    21    22 1   
    33    22    23 1   
    34    22    35 1   
    35    22    36 1   
    36    23    24 1   
    37    23    25 1   
@<TRIPOS>SUBSTRUCTURE
     1 FX4         1 TEMP              0 ****  ****    0 ROOT
