@<TRIPOS>MOLECULE
FX5
   38    40     1     0     0
SMALL
bcc


@<TRIPOS>ATOM
      1 C4           2.6600    -1.2190    -1.2340 ca         1 FX5      -0.082000
      2 C5           2.5080    -0.2690    -0.2250 cp         1 FX5      -0.203500
      3 C6           3.5800    -0.0410     0.6480 ca         1 FX5       0.184100
      4 C7           1.2250     0.4550    -0.1030 cp         1 FX5       0.415800
      5 C8           0.0120    -0.2530    -0.0910 ca         1 FX5      -0.200300
      6 C10         -1.0390     1.8650     0.0020 ca         1 FX5       0.585200
      7 N12          1.2600     1.7690    -0.0320 nb         1 FX5      -0.235000
      8 C17         -3.9800    -1.7930    -0.8580 c6         1 FX5       0.124300
      9 C20         -3.2070     0.0340     1.2050 c6         1 FX5       0.156300
     10 C1           4.7670    -0.7520     0.4850 ca         1 FX5      -0.225000
     11 C16         -2.5360    -1.4840    -0.5290 c6         1 FX5       0.156300
     12 C19         -4.6690    -0.2280     0.9290 c6         1 FX5       0.124300
     13 C2           4.8980    -1.6840    -0.5310 ca         1 FX5      -0.060000
     14 C3           3.8410    -1.9260    -1.3980 ca         1 FX5      -0.167000
     15 C9          -1.1640     0.4480    -0.0220 ca         1 FX5      -0.037700
     16 N11          0.1400     2.4600     0.0110 nb         1 FX5      -0.360000
     17 N14         -2.1470     2.6610     0.0410 nv         1 FX5      -0.932500
     18 N15         -2.4330    -0.1290    -0.0220 nh         1 FX5      -0.642000
     19 N18         -4.8370    -1.5850     0.3410 ny         1 FX5      -0.765000
     20 O13          3.4190     0.8480     1.6440 oh         1 FX5      -0.477100
     21 H24          1.8360    -1.3950    -1.9140 ha         1 FX5       0.122000
     22 H25          0.0240    -1.3350    -0.1130 ha         1 FX5       0.145000
     23 H32         -4.0990    -2.8260    -1.1760 hx         1 FX5       0.108200
     24 H37         -3.1150     1.0500     1.5850 h1         1 FX5       0.087700
     25 H38         -2.8420    -0.6390     1.9920 h1         1 FX5       0.087700
     26 H21          5.5930    -0.5760     1.1660 ha         1 FX5       0.143000
     27 H30         -2.1440    -2.2280     0.1800 h1         1 FX5       0.087700
     28 H29         -1.9640    -1.5790    -1.4520 h1         1 FX5       0.087700
     29 H35         -5.2600    -0.1870     1.8400 hx         1 FX5       0.108200
     30 H36         -5.0720     0.4820     0.2080 hx         1 FX5       0.108200
     31 H22          5.8300    -2.2240    -0.6400 ha         1 FX5       0.143000
     32 H23          3.9350    -2.6500    -2.1960 ha         1 FX5       0.142000
     33 H28         -2.9610     2.3050    -0.4380 hn         1 FX5       0.415300
     34 H27         -1.9700     3.6350    -0.1500 hn         1 FX5       0.415300
     35 H33         -5.8150    -1.7340     0.0910 hn         1 FX5       0.448300
     36 H34         -4.6300    -2.2950     1.0450 hn         1 FX5       0.448300
     37 H26          4.2170     0.8850     2.1840 ho         1 FX5       0.435000
     38 H31         -4.3550    -1.1330    -1.6370 hx         1 FX5       0.108200
@<TRIPOS>BOND
     1     1     2 ar  
     2     1    14 ar  
     3     1    21 1   
     4     2     3 ar  
     5     2     4 1   
     6     3    10 ar  
     7     3    20 1   
     8     4     5 ar  
     9     4     7 ar  
    10     5    15 ar  
    11     5    22 1   
    12     6    15 ar  
    13     6    16 ar  
    14     6    17 1   
    15     7    16 ar  
    16     8    11 1   
    17     8    19 1   
    18     8    23 1   
    19     8    38 1   
    20     9    12 1   
    21     9    18 1   
    22     9    24 1   
    23     9    25 1   
    24    10    13 ar  
    25    10    26 1   
    26    11    18 1   
    27    11    27 1   
    28    11    28 1   
    29    12    19 1   
    30    12    29 1   
    31    12    30 1   
    32    13    14 ar  
    33    13    31 1   
    34    14    32 1   
    35    15    18 1   
    36    17    33 1   
    37    17    34 1   
    38    19    35 1   
    39    19    36 1   
    40    20    37 1   
@<TRIPOS>SUBSTRUCTURE
     1 FX5         1 TEMP              0 ****  ****    0 ROOT
