@<TRIPOS>MOLECULE
FX5
   38    40     1     0     0
SMALL
No Charge or Current Charge


@<TRIPOS>ATOM
      1 C4           2.6960    -1.3930    -1.0630 ca         1 FX5      -0.064000
      2 C5           2.5780    -0.2750    -0.1970 cp         1 FX5      -0.203500
      3 C6           3.7210     0.1020     0.5620 ca         1 FX5       0.184100
      4 C7           1.2670     0.4480    -0.1070 cp         1 FX5       0.350500
      5 C8           0.0400    -0.2560    -0.0390 ca         1 FX5      -0.117000
      6 C10         -1.0570     1.8950    -0.0080 ca         1 FX5       0.519900
      7 N12          1.2740     1.8060    -0.1360 nb         1 FX5      -0.235000
      8 C17         -4.1390    -1.6750    -1.0720 c6         1 FX5       0.096100
      9 C20         -3.2130    -0.1610     1.3690 c6         1 FX5       0.156300
     10 C1           4.9280    -0.6080     0.4390 ca         1 FX5      -0.207000
     11 C16         -2.6420    -1.4790    -0.7000 c6         1 FX5       0.156300
     12 C19         -4.7420    -0.2880     1.1150 c6         1 FX5       0.096100
     13 C2           5.0240    -1.7040    -0.4330 ca         1 FX5      -0.042000
     14 C3           3.9050    -2.0970    -1.1810 ca         1 FX5      -0.149000
     15 C9          -1.1690     0.4660     0.0160 ca         1 FX5       0.166000
     16 N11          0.1310     2.5230    -0.0870 nb         1 FX5      -0.360000
     17 N14         -2.1300     2.7410     0.0060 nv         1 FX5      -1.042900
     18 N15         -2.4230    -0.2220     0.0920 nh         1 FX5      -0.780400
     19 N18         -5.0030    -1.5460     0.2240 ny         1 FX5      -0.819000
     20 O13          3.6700     1.1320     1.4540 oh         1 FX5      -0.516100
     21 H24          1.8440    -1.7100    -1.6610 ha         1 FX5       0.104000
     22 H25          0.0410    -1.3390    -0.0110 ha         1 FX5       0.127000
     23 H32         -4.3310    -2.6540    -1.5270 hx         1 FX5       0.108200
     24 H37         -3.0260     0.7840     1.9010 h1         1 FX5       0.087700
     25 H38         -2.8970    -0.9700     2.0440 h1         1 FX5       0.087700
     26 H21          5.7990    -0.3200     1.0230 ha         1 FX5       0.125000
     27 H30         -2.3020    -2.3540    -0.1260 h1         1 FX5       0.087700
     28 H29         -2.0570    -1.4570    -1.6320 h1         1 FX5       0.087700
     29 H35         -5.3110    -0.3940     2.0460 hx         1 FX5       0.108200
     30 H36         -5.1180     0.5800     0.5630 hx         1 FX5       0.108200
     31 H22          5.9610    -2.2510    -0.5240 ha         1 FX5       0.125000
     32 H23          3.9750    -2.9470    -1.8560 ha         1 FX5       0.124000
     33 H28         -3.0220     2.3150    -0.2250 hn         1 FX5       0.470500
     34 H27         -1.9780     3.6890    -0.3220 hn         1 FX5       0.470500
     35 H33         -6.0150    -1.5920    -0.0260 hn         1 FX5       0.503500
     36 H34         -4.8550    -2.3980     0.8050 hn         1 FX5       0.503500
     37 H26          4.5540     1.2250     1.8680 ho         1 FX5       0.474000
     38 H31         -4.4720    -0.8890    -1.7600 hx         1 FX5       0.108200
@<TRIPOS>BOND
     1     1     2 ar  
     2     1    14 ar  
     3     1    21 1   
     4     2     3 ar  
     5     2     4 1   
     6     3    10 ar  
     7     3    20 1   
     8     4     5 ar  
     9     4     7 ar  
    10     5    15 ar  
    11     5    22 1   
    12     6    15 ar  
    13     6    16 ar  
    14     6    17 1   
    15     7    16 ar  
    16     8    11 1   
    17     8    19 1   
    18     8    23 1   
    19     8    38 1   
    20     9    12 1   
    21     9    18 1   
    22     9    24 1   
    23     9    25 1   
    24    10    13 ar  
    25    10    26 1   
    26    11    18 1   
    27    11    27 1   
    28    11    28 1   
    29    12    19 1   
    30    12    29 1   
    31    12    30 1   
    32    13    14 ar  
    33    13    31 1   
    34    14    32 1   
    35    15    18 1   
    36    17    33 1   
    37    17    34 1   
    38    19    35 1   
    39    19    36 1   
    40    20    37 1   
@<TRIPOS>SUBSTRUCTURE
     1 FX5         1 TEMP              0 ****  ****    0 ROOT
