@<TRIPOS>MOLECULE
FX7
   55    56     1     0     0
SMALL
abcg2


@<TRIPOS>ATOM
      1 C28         -5.0790     2.3040    -0.7570 c3         1 FX7      -0.071400
      2 C29         -3.9290     2.3470     0.2420 c3         1 FX7      -0.079400
      3 C30         -2.6190     1.8570    -0.3600 c3         1 FX7      -0.062400
      4 C25         -1.4820     1.8620     0.6510 c3         1 FX7      -0.134400
      5 C21         -0.2390     1.2180     0.1270 c          1 FX7       0.610100
      6 O22         -0.0260     0.8790    -1.0020 o          1 FX7      -0.471000
      7 O20          0.6850     1.0470     1.1110 os         1 FX7      -0.350200
      8 C1           1.9040     0.5410     0.7470 ca         1 FX7       0.157100
      9 C2           2.8830     1.3840     0.2370 ca         1 FX7      -0.036900
     10 BR1          2.5130     3.2110     0.0220 br         1 FX7      -0.060100
     11 C3           4.1360     0.8960    -0.0990 ca         1 FX7      -0.039000
     12 C4           4.3880    -0.4550     0.0800 ca         1 FX7      -0.030900
     13 BR2          6.0800    -1.1400    -0.3760 br         1 FX7      -0.074100
     14 C5           3.4210    -1.3060     0.5930 ca         1 FX7      -0.052000
     15 C6           2.1670    -0.8130     0.9310 ca         1 FX7      -0.114300
     16 C7           1.1320    -1.7370     1.5110 c3         1 FX7       0.156300
     17 N8           0.0770    -2.0050     0.5520 ns         1 FX7      -0.500900
     18 C9          -0.9940    -2.7400     0.8760 c          1 FX7       0.623700
     19 O17         -1.1630    -3.2590     1.9650 o          1 FX7      -0.571100
     20 C10         -1.9550    -2.9610    -0.2600 ca         1 FX7      -0.083600
     21 C15         -3.2590    -2.4700    -0.2900 ca         1 FX7      -0.140200
     22 N16         -3.7160    -1.5530     0.7440 no         1 FX7       0.695200
     23 O19         -2.8740    -1.0010     1.4130 o          1 FX7      -0.392500
     24 O18         -4.9040    -1.3790     0.8700 o          1 FX7      -0.392500
     25 C11         -1.5530    -3.7950    -1.2950 ca         1 FX7      -0.100000
     26 C12         -2.4230    -4.1240    -2.3250 ca         1 FX7      -0.069000
     27 C13         -3.7160    -3.6260    -2.3320 ca         1 FX7      -0.106000
     28 C14         -4.1410    -2.7940    -1.3090 ca         1 FX7      -0.052000
     29 C8          -6.3940     2.8190    -0.1880 c3         1 FX7      -0.075400
     30 C16         -7.5370     2.7800    -1.1950 c3         1 FX7      -0.074400
     31 C17         -8.8480     3.3080    -0.6270 c3         1 FX7      -0.088100
     32 H1          -4.8100     2.8900    -1.6430 hc         1 FX7       0.035200
     33 H2          -5.2140     1.2740    -1.1040 hc         1 FX7       0.035200
     34 H3          -3.8020     3.3700     0.6120 hc         1 FX7       0.046200
     35 H4          -4.1830     1.7350     1.1140 hc         1 FX7       0.046200
     36 H5          -2.7560     0.8460    -0.7550 hc         1 FX7       0.046200
     37 H6          -2.3530     2.4800    -1.2170 hc         1 FX7       0.046200
     38 H7          -1.2270     2.8870     0.9430 hc         1 FX7       0.087200
     39 H8          -1.7740     1.3590     1.5750 hc         1 FX7       0.087200
     40 H9           4.8950     1.5590    -0.4930 ha         1 FX7       0.149000
     41 H10          3.6290    -2.3580     0.7340 ha         1 FX7       0.137000
     42 H11          1.6170    -2.6680     1.8090 h1         1 FX7       0.068200
     43 H12          0.7020    -1.3000     2.4150 h1         1 FX7       0.068200
     44 H13          0.1810    -1.6770    -0.3950 hn         1 FX7       0.333500
     45 H14         -0.5500    -4.2020    -1.2910 ha         1 FX7       0.132000
     46 H15         -2.0870    -4.7730    -3.1230 ha         1 FX7       0.129000
     47 H16         -4.3980    -3.8780    -3.1320 ha         1 FX7       0.132000
     48 H17         -5.1450    -2.3940    -1.3200 ha         1 FX7       0.153000
     49 H18         -6.6680     2.2280     0.6930 hc         1 FX7       0.040700
     50 H19         -6.2600     3.8470     0.1660 hc         1 FX7       0.040700
     51 H20         -7.2580     3.3630    -2.0790 hc         1 FX7       0.035200
     52 H21         -7.6790     1.7520    -1.5430 hc         1 FX7       0.035200
     53 H22         -9.1640     2.7240     0.2400 hc         1 FX7       0.031700
     54 H23         -8.7510     4.3460    -0.3050 hc         1 FX7       0.031700
     55 H24         -9.6510     3.2650    -1.3630 hc         1 FX7       0.031700
@<TRIPOS>BOND
     1     1     2 1   
     2     1    29 1   
     3     1    32 1   
     4     1    33 1   
     5     2     3 1   
     6     2    34 1   
     7     2    35 1   
     8     3     4 1   
     9     3    36 1   
    10     3    37 1   
    11     4     5 1   
    12     4    38 1   
    13     4    39 1   
    14     5     6 2   
    15     5     7 1   
    16     7     8 1   
    17     8     9 ar  
    18     8    15 ar  
    19     9    10 1   
    20     9    11 ar  
    21    11    12 ar  
    22    11    40 1   
    23    12    13 1   
    24    12    14 ar  
    25    14    15 ar  
    26    14    41 1   
    27    15    16 1   
    28    16    17 1   
    29    16    42 1   
    30    16    43 1   
    31    17    18 1   
    32    17    44 1   
    33    18    19 2   
    34    18    20 1   
    35    20    21 ar  
    36    20    25 ar  
    37    21    22 1   
    38    21    28 ar  
    39    22    23 1   
    40    22    24 1   
    41    25    26 ar  
    42    25    45 1   
    43    26    27 ar  
    44    26    46 1   
    45    27    28 ar  
    46    27    47 1   
    47    28    48 1   
    48    29    30 1   
    49    29    49 1   
    50    29    50 1   
    51    30    31 1   
    52    30    51 1   
    53    30    52 1   
    54    31    53 1   
    55    31    54 1   
    56    31    55 1   
@<TRIPOS>SUBSTRUCTURE
     1 FX7         1 TEMP              0 ****  ****    0 ROOT
