@<TRIPOS>MOLECULE
FX7
   55    56     1     0     0
SMALL
No Charge or Current Charge


@<TRIPOS>ATOM
      1 C28         -4.9750     1.9520    -1.0930 c3         1 FX7      -0.071400
      2 C29         -3.8320     1.9900    -0.0560 c3         1 FX7      -0.079400
      3 C30         -2.4690     1.5780    -0.6510 c3         1 FX7      -0.062400
      4 C25         -1.3250     1.5670     0.3920 c3         1 FX7      -0.134400
      5 C21          0.0200     1.0460    -0.1200 c          1 FX7       0.610100
      6 O22          0.1950     0.5970    -1.2450 o          1 FX7      -0.471000
      7 O20          0.9220     0.8990     0.8980 os         1 FX7      -0.350200
      8 C1           2.1610     0.3380     0.6960 ca         1 FX7       0.157100
      9 C2           3.2090     1.1260     0.1770 ca         1 FX7      -0.036900
     10 Br1          2.9410     2.9840    -0.2210 br         1 FX7      -0.060100
     11 C3           4.4720     0.5550    -0.0520 ca         1 FX7      -0.039000
     12 C4           4.6860    -0.8030     0.2360 ca         1 FX7      -0.030900
     13 Br2          6.4050    -1.5820    -0.0780 br         1 FX7      -0.074100
     14 C5           3.6460    -1.5910     0.7570 ca         1 FX7      -0.052000
     15 C6           2.3750    -1.0290     0.9930 ca         1 FX7      -0.114300
     16 C7           1.2640    -1.8960     1.5750 c3         1 FX7       0.156300
     17 N8           0.1260    -2.0090     0.6650 ns         1 FX7      -0.500900
     18 C9          -1.1490    -2.3400     1.0630 c          1 FX7       0.623700
     19 O17         -1.3630    -2.7650     2.1890 o          1 FX7      -0.571100
     20 C10         -2.2360    -2.1840     0.0110 ca         1 FX7      -0.083600
     21 C15         -3.6020    -1.9600     0.3640 ca         1 FX7      -0.140200
     22 N16         -4.0320    -1.7760     1.7800 no         1 FX7       0.695200
     23 O19         -3.5480    -0.8180     2.3980 o          1 FX7      -0.392500
     24 O18         -5.0340    -2.3970     2.1550 o          1 FX7      -0.392500
     25 C11         -1.9060    -2.2760    -1.3650 ca         1 FX7      -0.100000
     26 C12         -2.8930    -2.1590    -2.3570 ca         1 FX7      -0.069000
     27 C13         -4.2310    -1.9520    -1.9970 ca         1 FX7      -0.106000
     28 C14         -4.5850    -1.8530    -0.6440 ca         1 FX7      -0.052000
     29 C8          -6.3530     2.2950    -0.4860 c3         1 FX7      -0.075400
     30 C16         -7.4980     2.2400    -1.5210 c3         1 FX7      -0.074400
     31 C17         -8.8740     2.5780    -0.9160 c3         1 FX7      -0.088100
     32 H1          -4.7510     2.6570    -1.9040 hc         1 FX7       0.035200
     33 H2          -5.0210     0.9530    -1.5440 hc         1 FX7       0.035200
     34 H3          -3.7550     3.0010     0.3620 hc         1 FX7       0.046200
     35 H4          -4.0800     1.3190     0.7740 hc         1 FX7       0.046200
     36 H5          -2.5640     0.5790    -1.0920 hc         1 FX7       0.046200
     37 H6          -2.2060     2.2620    -1.4680 hc         1 FX7       0.046200
     38 H7          -1.1530     2.5520     0.8400 hc         1 FX7       0.087200
     39 H8          -1.5840     0.9780     1.2790 hc         1 FX7       0.087200
     40 H9           5.2810     1.1610    -0.4530 ha         1 FX7       0.149000
     41 H10          3.8310    -2.6410     0.9780 ha         1 FX7       0.137000
     42 H11          1.6410    -2.9050     1.7930 h1         1 FX7       0.068200
     43 H12          0.9260    -1.4530     2.5220 h1         1 FX7       0.068200
     44 H13          0.2380    -1.6690    -0.2820 hn         1 FX7       0.333500
     45 H14         -0.8830    -2.4630    -1.6840 ha         1 FX7       0.132000
     46 H15         -2.6200    -2.2380    -3.4070 ha         1 FX7       0.129000
     47 H16         -4.9950    -1.8620    -2.7680 ha         1 FX7       0.132000
     48 H17         -5.6260    -1.6740    -0.3790 ha         1 FX7       0.153000
     49 H18         -6.5710     1.5930     0.3290 hc         1 FX7       0.040700
     50 H19         -6.3120     3.2980    -0.0440 hc         1 FX7       0.040700
     51 H20         -7.2850     2.9420    -2.3370 hc         1 FX7       0.035200
     52 H21         -7.5400     1.2380    -1.9640 hc         1 FX7       0.035200
     53 H22         -9.1320     1.8700    -0.1190 hc         1 FX7       0.031700
     54 H23         -8.8740     3.5910    -0.4940 hc         1 FX7       0.031700
     55 H24         -9.6530     2.5270    -1.6860 hc         1 FX7       0.031700
@<TRIPOS>BOND
     1     1     2 1   
     2     1    29 1   
     3     1    32 1   
     4     1    33 1   
     5     2     3 1   
     6     2    34 1   
     7     2    35 1   
     8     3     4 1   
     9     3    36 1   
    10     3    37 1   
    11     4     5 1   
    12     4    38 1   
    13     4    39 1   
    14     5     6 2   
    15     5     7 1   
    16     7     8 1   
    17     8     9 ar  
    18     8    15 ar  
    19     9    10 1   
    20     9    11 ar  
    21    11    12 ar  
    22    11    40 1   
    23    12    13 1   
    24    12    14 ar  
    25    14    15 ar  
    26    14    41 1   
    27    15    16 1   
    28    16    17 1   
    29    16    42 1   
    30    16    43 1   
    31    17    18 1   
    32    17    44 1   
    33    18    19 2   
    34    18    20 1   
    35    20    21 ar  
    36    20    25 ar  
    37    21    22 1   
    38    21    28 ar  
    39    22    23 1   
    40    22    24 1   
    41    25    26 ar  
    42    25    45 1   
    43    26    27 ar  
    44    26    46 1   
    45    27    28 ar  
    46    27    47 1   
    47    28    48 1   
    48    29    30 1   
    49    29    49 1   
    50    29    50 1   
    51    30    31 1   
    52    30    51 1   
    53    30    52 1   
    54    31    53 1   
    55    31    54 1   
    56    31    55 1   
@<TRIPOS>SUBSTRUCTURE
     1 FX7         1 TEMP              0 ****  ****    0 ROOT
