@<TRIPOS>MOLECULE
FX8
  125   131     1     0     0
SMALL
No Charge or Current Charge


@<TRIPOS>ATOM
      1 N1           8.1320     3.5870     0.5370 ns         1 FX8      -0.484900
      2 C4           6.5870     1.6660     0.3620 c          1 FX8       0.603100
      3 C5           6.1980     5.5210    -0.6250 c3         1 FX8      -0.090433
      4 C6           4.4610     3.7230    -0.7770 c3         1 FX8      -0.090433
      5 C7           6.5790     3.5300    -2.1260 c3         1 FX8      -0.090433
      6 C10          5.2540    -0.4580     0.7470 c5         1 FX8       0.028700
      7 C13          4.5970     1.5860     1.9720 c5         1 FX8       0.070000
      8 C15          4.6090    -0.8480    -0.6210 c          1 FX8       0.605100
      9 C20          2.4650    -4.4270    -0.6060 ca         1 FX8       0.164100
     10 C21          2.0110    -5.7060    -0.2180 ca         1 FX8      -0.199000
     11 C22          2.6640    -6.8810    -0.6550 ca         1 FX8       0.041000
     12 C24          4.2320    -5.4690    -1.9040 ca         1 FX8      -0.065000
     13 C26          2.7590    -9.4560    -0.2670 cc         1 FX8       0.306300
     14 C28          0.7390   -10.1140     0.3800 cd         1 FX8       0.416300
     15 C2           6.6950     3.2290     0.4380 c3         1 FX8       0.048700
     16 C3           5.9910     3.9850    -0.7590 c3         1 FX8      -0.046000
     17 N8           5.4630     1.0100     0.9170 n          1 FX8      -0.392800
     18 O9           7.4550     1.0030    -0.1980 o          1 FX8      -0.609100
     19 C11          4.2560    -0.7740     1.9080 c5         1 FX8      -0.085400
     20 C12          3.4490     0.5400     2.0300 c5         1 FX8       0.149300
     21 O14          2.7100     0.5900     3.2510 oh         1 FX8      -0.649000
     22 O16          4.1150    -0.0970    -1.4530 o          1 FX8      -0.613100
     23 N17          4.6890    -2.2120    -0.7900 ns         1 FX8      -0.485900
     24 C18          4.0800    -2.9390    -1.9010 c3         1 FX8       0.161300
     25 C19          3.5830    -4.3080    -1.4540 ca         1 FX8      -0.145300
     26 C23          3.7770    -6.7380    -1.5110 ca         1 FX8      -0.134000
     27 C25          2.1510    -8.2100    -0.2230 cd         1 FX8      -0.192000
     28 N27          1.9650   -10.5210     0.0830 nc         1 FX8      -0.637000
     29 S29          0.4680    -8.3850     0.2720 ss         1 FX8      -0.029400
     30 C31          8.6730     4.4960     1.4190 c          1 FX8       0.622100
     31 C32         10.1840     4.6680     1.2910 cx         1 FX8       0.032000
     32 O33          7.9930     5.1050     2.2360 o          1 FX8      -0.610100
     33 F34         10.5720     5.4020     0.2050 f          1 FX8      -0.231000
     34 C35         11.0180     4.7720     2.5520 cx         1 FX8      -0.117900
     35 C36         11.0700     3.5160     1.7160 cx         1 FX8      -0.117900
     36 O37          1.8520    -3.2680    -0.1690 os         1 FX8      -0.330100
     37 C38          0.6650    -3.2690     0.6480 c3         1 FX8       0.161600
     38 O39         -0.1050    -1.1370    -0.2300 os         1 FX8      -0.431000
     39 C40         -0.4110     0.2620    -0.0660 c3         1 FX8       0.158600
     40 C41         -0.8090     0.8530    -1.4390 c3         1 FX8       0.154600
     41 O42         -2.1170     0.3680    -1.7980 os         1 FX8      -0.431000
     42 C43          0.3000    -1.8050     0.9800 c3         1 FX8       0.161600
     43 C44         -2.5990     0.8390    -3.0720 c3         1 FX8       0.164600
     44 C45         -4.0230     0.2680    -3.3310 c3         1 FX8       0.169800
     45 N46         -5.0870     0.6570    -2.3590 n3         1 FX8      -0.709600
     46 C47         -5.3390     2.1320    -2.2970 c6         1 FX8       0.164300
     47 C48         -6.4300     2.5170    -1.2450 c6         1 FX8       0.184800
     48 N49         -7.7080     1.7610    -1.4430 nh         1 FX8      -0.787400
     49 C50         -7.4810     0.2860    -1.5650 c6         1 FX8       0.184800
     50 C51         -6.3730    -0.0620    -2.6100 c6         1 FX8       0.164300
     51 C52         -8.9340     2.2350    -0.8750 ca         1 FX8       0.240000
     52 C53         -8.9410     2.8600     0.3880 ca         1 FX8      -0.161000
     53 C54        -10.1660     3.3230     0.9310 cp         1 FX8       0.378500
     54 N55        -11.3200     3.1540     0.2340 nb         1 FX8      -0.377000
     55 N56        -11.3460     2.5590    -0.9760 nb         1 FX8      -0.370000
     56 C57        -10.2050     2.1070    -1.5320 ca         1 FX8       0.511900
     57 N58        -10.3830     1.5570    -2.7740 nv         1 FX8      -1.038900
     58 C59        -10.2560     3.9910     2.2790 cp         1 FX8      -0.265500
     59 C60        -11.4280     3.9500     3.0910 ca         1 FX8       0.207100
     60 C61        -11.4580     4.5700     4.3490 ca         1 FX8      -0.174000
     61 C62        -10.3360     5.2550     4.8350 ca         1 FX8      -0.052000
     62 C63         -9.1750     5.3200     4.0530 ca         1 FX8      -0.171000
     63 C64         -9.1350     4.6990     2.7950 ca         1 FX8      -0.050000
     64 O65        -12.5510     3.3020     2.6830 oh         1 FX8      -0.557100
     65 H1           8.7840     3.1170    -0.0810 hn         1 FX8       0.348500
     66 H2           5.6440     6.0610    -1.4020 hc         1 FX8       0.041144
     67 H3           5.8430     5.8800     0.3490 hc         1 FX8       0.041144
     68 H4           7.2540     5.7980    -0.7270 hc         1 FX8       0.041144
     69 H5           4.2320     2.6570    -0.8800 hc         1 FX8       0.041144
     70 H6           3.9870     4.0950     0.1390 hc         1 FX8       0.041144
     71 H7           3.9870     4.2390    -1.6210 hc         1 FX8       0.041144
     72 H8           6.3890     2.4650    -2.3080 hc         1 FX8       0.041144
     73 H9           6.1240     4.0900    -2.9520 hc         1 FX8       0.041144
     74 H10          7.6620     3.6960    -2.1710 hc         1 FX8       0.041144
     75 H11          6.1900    -1.0210     0.8620 h1         1 FX8       0.078700
     76 H12          5.1370     1.6510     2.9260 h1         1 FX8       0.060200
     77 H13          4.2140     2.5800     1.7200 h1         1 FX8       0.060200
     78 H14          1.1600    -5.7910     0.4470 ha         1 FX8       0.122000
     79 H15          5.0890    -5.3930    -2.5710 ha         1 FX8       0.120000
     80 H16         -0.0720   -10.7650     0.6820 h5         1 FX8       0.053100
     81 H17          6.2110     3.5400     1.3700 h1         1 FX8       0.086700
     82 H18          3.6190    -1.6440     1.7110 hc         1 FX8       0.072200
     83 H19          4.8010    -0.9830     2.8360 hc         1 FX8       0.072200
     84 H20          2.7790     0.6600     1.1660 h1         1 FX8       0.058700
     85 H21          2.2500     1.4590     3.2790 ho         1 FX8       0.449000
     86 H22          5.1190    -2.7500    -0.0480 hn         1 FX8       0.317500
     87 H23          3.2340    -2.3620    -2.3000 h1         1 FX8       0.064700
     88 H24          4.8220    -3.0440    -2.7030 h1         1 FX8       0.064700
     89 H25          4.2870    -7.6000    -1.9210 ha         1 FX8       0.125000
     90 H26          4.3390    -9.8700    -1.6730 hc         1 FX8       0.053033
     91 H27          4.8710    -9.0240    -0.1950 hc         1 FX8       0.053033
     92 H28          4.4890   -10.7430    -0.1450 hc         1 FX8       0.053033
     93 H29         11.8820     5.4320     2.5330 hc         1 FX8       0.092700
     94 H30         10.5060     4.7240     3.5100 hc         1 FX8       0.092700
     95 H31         10.5940     2.6230     2.1150 hc         1 FX8       0.092700
     96 H32         11.9710     3.3290     1.1360 hc         1 FX8       0.092700
     97 H33         -0.1720    -3.7500     0.1260 h1         1 FX8       0.045200
     98 H34          0.8470    -3.8060     1.5880 h1         1 FX8       0.045200
     99 H35         -1.2310     0.4060     0.6490 h1         1 FX8       0.032700
    100 H36          0.4690     0.8020     0.3080 h1         1 FX8       0.032700
    101 H37         -0.8180     1.9480    -1.3630 h1         1 FX8       0.032200
    102 H38         -0.0610     0.5690    -2.1910 h1         1 FX8       0.032200
    103 H39         -0.5180    -1.7980     1.7120 h1         1 FX8       0.030700
    104 H40          1.1670    -1.3080     1.4330 h1         1 FX8       0.030700
    105 H41         -2.6250     1.9360    -3.0990 h1         1 FX8       0.021700
    106 H42         -1.9330     0.5020    -3.8770 h1         1 FX8       0.021700
    107 H43         -4.3250     0.5740    -4.3420 h1         1 FX8       0.042200
    108 H44         -3.9340    -0.8260    -3.3520 h1         1 FX8       0.042200
    109 H46         -4.4180     2.6730    -2.0380 h1         1 FX8       0.039200
    110 H47         -5.6610     2.5000    -3.2830 h1         1 FX8       0.039200
    111 H48         -6.0290     2.3150    -0.2410 h1         1 FX8       0.052700
    112 H49         -6.6130     3.5990    -1.3150 h1         1 FX8       0.052700
    113 H50         -7.1810    -0.1220    -0.5880 h1         1 FX8       0.052700
    114 H51         -8.4090    -0.2270    -1.8570 h1         1 FX8       0.052700
    115 H52         -6.7520     0.1860    -3.6130 h1         1 FX8       0.039200
    116 H53         -6.2090    -1.1500    -2.5920 h1         1 FX8       0.039200
    117 H54         -8.0210     2.9590     0.9510 ha         1 FX8       0.132000
    118 H55        -11.2450     1.7860    -3.2580 hn         1 FX8       0.472500
    119 H56         -9.5480     1.4580    -3.3440 hn         1 FX8       0.472500
    120 H57        -12.3610     4.5200     4.9530 ha         1 FX8       0.129000
    121 H58        -10.3670     5.7360     5.8110 ha         1 FX8       0.113000
    122 H59         -8.3030     5.8560     4.4210 ha         1 FX8       0.114000
    123 H60         -8.2210     4.7840     2.2110 ha         1 FX8       0.102000
    124 H61        -12.4070     3.0700     1.7340 ho         1 FX8       0.527000
    125 C30          4.1910    -9.7870    -0.5910 c3         1 FX8      -0.122400
@<TRIPOS>BOND
     1     1    15 1   
     2     1    30 1   
     3     1    65 1   
     4     2    15 1   
     5     2    17 1   
     6     2    18 2   
     7     3    16 1   
     8     3    66 1   
     9     3    67 1   
    10     3    68 1   
    11     4    16 1   
    12     4    69 1   
    13     4    70 1   
    14     4    71 1   
    15     5    16 1   
    16     5    72 1   
    17     5    73 1   
    18     5    74 1   
    19     6     8 1   
    20     6    17 1   
    21     6    19 1   
    22     6    75 1   
    23     7    17 1   
    24     7    20 1   
    25     7    76 1   
    26     7    77 1   
    27     8    22 2   
    28     8    23 1   
    29     9    10 ar  
    30     9    25 ar  
    31     9    36 1   
    32    10    11 ar  
    33    10    78 1   
    34    11    26 ar  
    35    11    27 1   
    36    12    25 ar  
    37    12    26 ar  
    38    12    79 1   
    39    13    27 2   
    40    13    28 1   
    41    13   125 1   
    42    14    28 2   
    43    14    29 1   
    44    14    80 1   
    45    15    16 1   
    46    15    81 1   
    47    19    20 1   
    48    19    82 1   
    49    19    83 1   
    50    20    21 1   
    51    20    84 1   
    52    21    85 1   
    53    23    24 1   
    54    23    86 1   
    55    24    25 1   
    56    24    87 1   
    57    24    88 1   
    58    26    89 1   
    59    27    29 1   
    60    30    31 1   
    61    30    32 2   
    62    31    33 1   
    63    31    34 1   
    64    31    35 1   
    65    34    35 1   
    66    34    93 1   
    67    34    94 1   
    68    35    95 1   
    69    35    96 1   
    70    36    37 1   
    71    37    42 1   
    72    37    97 1   
    73    37    98 1   
    74    38    39 1   
    75    38    42 1   
    76    39    40 1   
    77    39    99 1   
    78    39   100 1   
    79    40    41 1   
    80    40   101 1   
    81    40   102 1   
    82    41    43 1   
    83    42   103 1   
    84    42   104 1   
    85    43    44 1   
    86    43   105 1   
    87    43   106 1   
    88    44    45 1   
    89    44   107 1   
    90    44   108 1   
    91    45    46 1   
    92    45    50 1   
    93    46    47 1   
    94    46   109 1   
    95    46   110 1   
    96    47    48 1   
    97    47   111 1   
    98    47   112 1   
    99    48    49 1   
   100    48    51 1   
   101    49    50 1   
   102    49   113 1   
   103    49   114 1   
   104    50   115 1   
   105    50   116 1   
   106    51    52 ar  
   107    51    56 ar  
   108    52    53 ar  
   109    52   117 1   
   110    53    54 ar  
   111    53    58 1   
   112    54    55 ar  
   113    55    56 ar  
   114    56    57 1   
   115    57   118 1   
   116    57   119 1   
   117    58    59 ar  
   118    58    63 ar  
   119    59    60 ar  
   120    59    64 1   
   121    60    61 ar  
   122    60   120 1   
   123    61    62 ar  
   124    61   121 1   
   125    62    63 ar  
   126    62   122 1   
   127    63   123 1   
   128    64   124 1   
   129    90   125 1   
   130    91   125 1   
   131    92   125 1   
@<TRIPOS>SUBSTRUCTURE
     1 FX8         1 TEMP              0 ****  ****    0 ROOT
