@<TRIPOS>MOLECULE
FX8
  125   131     1     0     0
SMALL
bcc


@<TRIPOS>ATOM
      1 N1           7.4790     3.0790     0.0160 ns         1 FX8      -0.551900
      2 C4           5.6930     1.4930     0.0430 c          1 FX8       0.670100
      3 C5           5.8650     5.1120    -1.3600 c3         1 FX8      -0.090433
      4 C6           3.9600     3.5150    -1.4020 c3         1 FX8      -0.090433
      5 C7           6.0580     2.9870    -2.6410 c3         1 FX8      -0.090433
      6 C10          4.3390    -0.2780     0.9590 c5         1 FX8       0.028700
      7 C13          3.8620     1.9740     1.7030 c5         1 FX8       0.070000
      8 C15          3.7750    -0.7940    -0.3610 c          1 FX8       0.672100
      9 C20          2.2780    -4.6820    -0.4790 ca         1 FX8       0.164100
     10 C21          2.0710    -6.0370    -0.2510 ca         1 FX8      -0.217000
     11 C22          2.8420    -6.9970    -0.9120 ca         1 FX8       0.041000
     12 C24          4.0080    -5.2310    -2.0440 ca         1 FX8      -0.083000
     13 C26          3.5300    -9.4210    -0.4340 cc         1 FX8       0.371600
     14 C28          1.6910   -10.6230    -0.2800 cd         1 FX8       0.416300
     15 C2           6.0400     2.9750    -0.0770 c3         1 FX8       0.048700
     16 C3           5.4860     3.6290    -1.3770 c3         1 FX8      -0.046000
     17 N8           4.6940     1.1290     0.8600 n          1 FX8      -0.459800
     18 O9           6.3320     0.6570    -0.5850 o          1 FX8      -0.609100
     19 C11          3.2550    -0.3000     2.0410 c5         1 FX8      -0.085400
     20 C12          2.6420     1.0880     1.9590 c5         1 FX8       0.126100
     21 O14          1.9390     1.3930     3.1310 oh         1 FX8      -0.586800
     22 O16          3.0870    -0.0930    -1.0870 o          1 FX8      -0.613100
     23 N17          4.0260    -2.0870    -0.5980 ns         1 FX8      -0.552900
     24 C18          3.4530    -2.8090    -1.7150 c3         1 FX8       0.161300
     25 C19          3.2530    -4.2640    -1.4000 ca         1 FX8      -0.145300
     26 C23          3.8150    -6.5860    -1.8160 ca         1 FX8      -0.152000
     27 C25          2.6200    -8.4210    -0.6540 cd         1 FX8      -0.112400
     28 N27          2.9810   -10.6580    -0.2270 nc         1 FX8      -0.637000
     29 S29          1.0240    -9.0770    -0.5900 ss         1 FX8      -0.174300
     30 C31          8.1100     3.8790     0.8860 c          1 FX8       0.689100
     31 C32          9.6040     3.8210     0.8470 cx         1 FX8       0.013300
     32 O33          7.5500     4.6280     1.6730 o          1 FX8      -0.610100
     33 F34         10.1000     2.9280    -0.0730 f          1 FX8      -0.212300
     34 C35         10.3920     5.0660     1.0670 cx         1 FX8      -0.117900
     35 C36         10.3790     3.9870     2.1080 cx         1 FX8      -0.117900
     36 O37          1.5950    -3.7060     0.1400 os         1 FX8      -0.306900
     37 C38          0.4560    -4.0380     0.9140 c3         1 FX8       0.138400
     38 O39         -0.3590    -1.8220     0.6180 os         1 FX8      -0.384600
     39 C40         -0.6870    -0.5710     1.1670 c3         1 FX8       0.135400
     40 C41         -0.6560     0.4800     0.0880 c3         1 FX8       0.131400
     41 O42         -1.7200     0.2810    -0.8040 os         1 FX8      -0.384600
     42 C43         -0.0460    -2.7860     1.5840 c3         1 FX8       0.138400
     43 C44         -1.7460     1.2240    -1.8450 c3         1 FX8       0.141400
     44 C45         -3.0060     1.0390    -2.6640 c3         1 FX8       0.169800
     45 N46         -4.2250     1.2410    -1.9060 n3         1 FX8      -0.709600
     46 C47         -4.4590     2.6340    -1.5870 c6         1 FX8       0.164300
     47 C48         -5.6950     2.7980    -0.7250 c6         1 FX8       0.184800
     48 N49         -6.8470     2.2330    -1.4030 nh         1 FX8      -0.649000
     49 C50         -6.6200     0.8240    -1.7280 c6         1 FX8       0.184800
     50 C51         -5.3780     0.6850    -2.5840 c6         1 FX8       0.164300
     51 C52         -8.0970     2.5560    -0.9020 ca         1 FX8       0.036300
     52 C53         -8.3220     3.0550     0.3540 ca         1 FX8      -0.244300
     53 C54         -9.6360     3.3640     0.7520 cp         1 FX8       0.443800
     54 N55        -10.6390     3.1690    -0.0850 nb         1 FX8      -0.377000
     55 N56        -10.4540     2.7360    -1.3140 nb         1 FX8      -0.370000
     56 C57         -9.2460     2.4420    -1.7460 ca         1 FX8       0.577200
     57 N58         -9.1220     2.0170    -3.0340 nv         1 FX8      -0.928500
     58 C59         -9.9720     3.8920     2.0880 cp         1 FX8      -0.265500
     59 C60        -11.3110     4.1580     2.4560 ca         1 FX8       0.207100
     60 C61        -11.5920     4.6590     3.7300 ca         1 FX8      -0.192000
     61 C62        -10.5790     4.9030     4.6360 ca         1 FX8      -0.070000
     62 C63         -9.2550     4.6510     4.2880 ca         1 FX8      -0.189000
     63 C64         -8.9720     4.1530     3.0310 ca         1 FX8      -0.068000
     64 O65        -12.3430     3.9510     1.6360 oh         1 FX8      -0.518100
     65 H1           8.0260     2.4630    -0.5650 hn         1 FX8       0.348500
     66 H2           5.4250     5.6170    -2.2220 hc         1 FX8       0.041144
     67 H3           5.5020     5.6090    -0.4590 hc         1 FX8       0.041144
     68 H4           6.9450     5.2570    -1.4150 hc         1 FX8       0.041144
     69 H5           3.6160     2.4800    -1.3760 hc         1 FX8       0.041144
     70 H6           3.5030     4.0490    -0.5660 hc         1 FX8       0.041144
     71 H7           3.5730     3.9650    -2.3180 hc         1 FX8       0.041144
     72 H8           5.7630     1.9450    -2.7530 hc         1 FX8       0.041144
     73 H9           5.6880     3.5280    -3.5140 hc         1 FX8       0.041144
     74 H10          7.1480     3.0360    -2.6710 hc         1 FX8       0.041144
     75 H11          5.2030    -0.8750     1.2590 h1         1 FX8       0.078700
     76 H12          4.3630     2.2120     2.6470 h1         1 FX8       0.060200
     77 H13          3.5870     2.9030     1.2120 h1         1 FX8       0.060200
     78 H14          1.3230    -6.3680     0.4590 ha         1 FX8       0.140000
     79 H15          4.7570    -4.9160    -2.7600 ha         1 FX8       0.138000
     80 H16          1.0550   -11.4870    -0.1410 h5         1 FX8       0.053100
     81 H17          5.6340     3.5340     0.7670 h1         1 FX8       0.086700
     82 H18          2.5340    -1.1040     1.8900 hc         1 FX8       0.072200
     83 H19          3.7140    -0.4420     3.0220 hc         1 FX8       0.072200
     84 H20          1.9940     1.1450     1.0760 h1         1 FX8       0.058700
     85 H21          1.4460     2.2070     2.9930 ho         1 FX8       0.410000
     86 H22          4.6670    -2.5800     0.0030 hn         1 FX8       0.317500
     87 H23          2.5040    -2.3380    -1.9700 h1         1 FX8       0.064700
     88 H24          4.0990    -2.7250    -2.5940 h1         1 FX8       0.064700
     89 H25          4.4000    -7.3120    -2.3650 ha         1 FX8       0.143000
     90 H26          5.4850    -9.5500    -1.3150 hc         1 FX8       0.053033
     91 H27          5.3070    -8.2460    -0.1460 hc         1 FX8       0.053033
     92 H28          5.4230    -9.9210     0.4020 hc         1 FX8       0.053033
     93 H29         11.2900     5.1810     0.4730 hc         1 FX8       0.092700
     94 H30          9.8450     5.9800     1.2560 hc         1 FX8       0.092700
     95 H31          9.8240     4.1490     3.0210 hc         1 FX8       0.092700
     96 H32         11.2690     3.3790     2.2110 hc         1 FX8       0.092700
     97 H33         -0.3170    -4.4840     0.2780 h1         1 FX8       0.045200
     98 H34          0.7000    -4.7600     1.7010 h1         1 FX8       0.045200
     99 H35         -1.6740    -0.5920     1.6510 h1         1 FX8       0.032700
    100 H36          0.0340    -0.2800     1.9440 h1         1 FX8       0.032700
    101 H37         -0.7260     1.4680     0.5660 h1         1 FX8       0.032200
    102 H38          0.3150     0.4430    -0.4290 h1         1 FX8       0.032200
    103 H39         -0.9200    -3.0590     2.1910 h1         1 FX8       0.030700
    104 H40          0.7160    -2.4110     2.2810 h1         1 FX8       0.030700
    105 H41         -1.6820     2.2450    -1.4430 h1         1 FX8       0.021700
    106 H42         -0.8790     1.1040    -2.5110 h1         1 FX8       0.021700
    107 H43         -2.9450     1.7110    -3.5360 h1         1 FX8       0.042200
    108 H44         -3.0160     0.0200    -3.0610 h1         1 FX8       0.042200
    109 H46         -3.6110     3.0370    -1.0290 h1         1 FX8       0.039200
    110 H47         -4.5640     3.2490    -2.4980 h1         1 FX8       0.039200
    111 H48         -5.5220     2.3220     0.2510 h1         1 FX8       0.052700
    112 H49         -5.8660     3.8620    -0.5510 h1         1 FX8       0.052700
    113 H50         -6.5040     0.2410    -0.8050 h1         1 FX8       0.052700
    114 H51         -7.4770     0.4160    -2.2620 h1         1 FX8       0.052700
    115 H52         -5.5610     1.1650    -3.5610 h1         1 FX8       0.039200
    116 H53         -5.2040    -0.3760    -2.7740 h1         1 FX8       0.039200
    117 H54         -7.4960     3.1830     1.0360 ha         1 FX8       0.150000
    118 H55         -9.9220     2.1950    -3.6210 hn         1 FX8       0.417300
    119 H56         -8.2420     2.2210    -3.4820 hn         1 FX8       0.417300
    120 H57        -12.6240     4.8520     3.9940 ha         1 FX8       0.147000
    121 H58        -10.8220     5.2930     5.6160 ha         1 FX8       0.131000
    122 H59         -8.4540     4.8400     4.9880 ha         1 FX8       0.132000
    123 H60         -7.9360     3.9680     2.7820 ha         1 FX8       0.120000
    124 H61        -11.9730     3.6030     0.7770 ho         1 FX8       0.488000
    125 C30          5.0140    -9.2700    -0.3710 c3         1 FX8      -0.122400
@<TRIPOS>BOND
     1     1    15 1   
     2     1    30 1   
     3     1    65 1   
     4     2    15 1   
     5     2    17 1   
     6     2    18 2   
     7     3    16 1   
     8     3    66 1   
     9     3    67 1   
    10     3    68 1   
    11     4    16 1   
    12     4    69 1   
    13     4    70 1   
    14     4    71 1   
    15     5    16 1   
    16     5    72 1   
    17     5    73 1   
    18     5    74 1   
    19     6     8 1   
    20     6    17 1   
    21     6    19 1   
    22     6    75 1   
    23     7    17 1   
    24     7    20 1   
    25     7    76 1   
    26     7    77 1   
    27     8    22 2   
    28     8    23 1   
    29     9    10 ar  
    30     9    25 ar  
    31     9    36 1   
    32    10    11 ar  
    33    10    78 1   
    34    11    26 ar  
    35    11    27 1   
    36    12    25 ar  
    37    12    26 ar  
    38    12    79 1   
    39    13    27 2   
    40    13    28 1   
    41    13   125 1   
    42    14    28 2   
    43    14    29 1   
    44    14    80 1   
    45    15    16 1   
    46    15    81 1   
    47    19    20 1   
    48    19    82 1   
    49    19    83 1   
    50    20    21 1   
    51    20    84 1   
    52    21    85 1   
    53    23    24 1   
    54    23    86 1   
    55    24    25 1   
    56    24    87 1   
    57    24    88 1   
    58    26    89 1   
    59    27    29 1   
    60    30    31 1   
    61    30    32 2   
    62    31    33 1   
    63    31    34 1   
    64    31    35 1   
    65    34    35 1   
    66    34    93 1   
    67    34    94 1   
    68    35    95 1   
    69    35    96 1   
    70    36    37 1   
    71    37    42 1   
    72    37    97 1   
    73    37    98 1   
    74    38    39 1   
    75    38    42 1   
    76    39    40 1   
    77    39    99 1   
    78    39   100 1   
    79    40    41 1   
    80    40   101 1   
    81    40   102 1   
    82    41    43 1   
    83    42   103 1   
    84    42   104 1   
    85    43    44 1   
    86    43   105 1   
    87    43   106 1   
    88    44    45 1   
    89    44   107 1   
    90    44   108 1   
    91    45    46 1   
    92    45    50 1   
    93    46    47 1   
    94    46   109 1   
    95    46   110 1   
    96    47    48 1   
    97    47   111 1   
    98    47   112 1   
    99    48    49 1   
   100    48    51 1   
   101    49    50 1   
   102    49   113 1   
   103    49   114 1   
   104    50   115 1   
   105    50   116 1   
   106    51    52 ar  
   107    51    56 ar  
   108    52    53 ar  
   109    52   117 1   
   110    53    54 ar  
   111    53    58 1   
   112    54    55 ar  
   113    55    56 ar  
   114    56    57 1   
   115    57   118 1   
   116    57   119 1   
   117    58    59 ar  
   118    58    63 ar  
   119    59    60 ar  
   120    59    64 1   
   121    60    61 ar  
   122    60   120 1   
   123    61    62 ar  
   124    61   121 1   
   125    62    63 ar  
   126    62   122 1   
   127    63   123 1   
   128    64   124 1   
   129    90   125 1   
   130    91   125 1   
   131    92   125 1   
@<TRIPOS>SUBSTRUCTURE
     1 FX8         1 TEMP              0 ****  ****    0 ROOT
