@<TRIPOS>MOLECULE
FX9
   25    25     1     0     0
SMALL
No Charge or Current Charge


@<TRIPOS>ATOM
      1 CA          -9.9360   138.2510    12.8670 c3         1 FX9       0.012500
      2 CB          -9.7020   138.6460    11.3830 c3         1 FX9      -0.011100
      3 CG          -8.8280   137.6650    10.6020 ca         1 FX9      -0.046300
      4 CD1         -7.4390   137.8680    10.5100 ca         1 FX9      -0.083000
      5 CZ          -7.2250   135.8750     9.1280 ca         1 FX9      -0.086000
      6 CE2         -8.6160   135.6510     9.2130 ca         1 FX9      -0.202300
      7 CD2         -9.4110   136.5600     9.9480 ca         1 FX9      -0.036000
      8 C          -10.8330   136.9470    12.9690 c          1 FX9       0.691000
      9 CE1         -6.6410   136.9760     9.7750 ca         1 FX9      -0.137000
     10 C09         -9.2620   134.4600     8.4970 c3         1 FX9       0.353300
     11 F10        -10.3520   133.9970     9.1510 f          1 FX9      -0.121333
     12 F11         -8.4160   133.4120     8.3710 f          1 FX9      -0.121333
     13 F12         -9.6630   134.7950     7.2500 f          1 FX9      -0.121333
     14 N           -8.6370   138.2510    13.6390 n8         1 FX9      -1.002200
     15 O          -12.0300   137.0510    12.7390 o          1 FX9      -0.729000
     16 OXT        -10.3190   135.9090    13.3680 o          1 FX9      -0.729000
     17 HA         -10.5470   139.0510    13.3090 h1         1 FX9       0.039700
     18 HB2         -9.2530   139.6460    11.3520 hc         1 FX9       0.040700
     19 HB3        -10.6760   138.7510    10.8880 hc         1 FX9       0.040700
     20 HD1         -6.9780   138.7190    11.0050 ha         1 FX9       0.114000
     21 HZ          -6.5900   135.1990     8.5570 ha         1 FX9       0.109000
     22 HD2        -10.4870   136.4130    10.0110 ha         1 FX9       0.156000
     23 HE1         -5.5690   137.1400     9.7040 ha         1 FX9       0.098000
     24 H           -8.8340   137.9900    14.6130 hn         1 FX9       0.385500
     25 H2          -8.0730   137.4600    13.3040 hn         1 FX9       0.385500
@<TRIPOS>BOND
     1     1     2 1   
     2     1     8 1   
     3     1    14 1   
     4     1    17 1   
     5     2     3 1   
     6     2    18 1   
     7     2    19 1   
     8     3     4 ar  
     9     3     7 ar  
    10     4     9 ar  
    11     4    20 1   
    12     5     6 ar  
    13     5     9 ar  
    14     5    21 1   
    15     6     7 ar  
    16     6    10 1   
    17     7    22 1   
    18     8    15 1   
    19     8    16 1   
    20     9    23 1   
    21    10    11 1   
    22    10    12 1   
    23    10    13 1   
    24    14    24 1   
    25    14    25 1   
@<TRIPOS>SUBSTRUCTURE
     1 FX9         1 TEMP              0 ****  ****    0 ROOT
