@<TRIPOS>MOLECULE
FX9
   25    25     1     0     0
SMALL
abcg2


@<TRIPOS>ATOM
      1 CA          -9.9230   138.2160    12.8200 c3         1 FX9       0.012500
      2 CB          -9.6890   138.6580    11.3650 c3         1 FX9      -0.011100
      3 CG          -8.8340   137.6960    10.5920 ca         1 FX9      -0.046300
      4 CD1         -7.4530   137.8700    10.5080 ca         1 FX9      -0.083000
      5 CZ          -7.2280   135.8650     9.1970 ca         1 FX9      -0.086000
      6 CE2         -8.6010   135.6780     9.2780 ca         1 FX9      -0.202300
      7 CD2         -9.3960   136.5860     9.9700 ca         1 FX9      -0.036000
      8 C          -10.7980   136.9340    12.8590 c          1 FX9       0.691000
      9 CE1         -6.6590   136.9680     9.8180 ca         1 FX9      -0.137000
     10 C09         -9.2680   134.5190     8.6070 c3         1 FX9       0.353300
     11 F10        -10.0370   133.8180     9.4520 f          1 FX9      -0.121333
     12 F11         -8.3960   133.6580     8.0740 f          1 FX9      -0.121333
     13 F12        -10.0790   134.9230     7.6160 f          1 FX9      -0.121333
     14 N           -8.6510   138.1360    13.5210 n8         1 FX9      -1.002200
     15 O          -11.9400   137.0450    12.3630 o          1 FX9      -0.729000
     16 OXT        -10.2980   135.9130    13.3660 o          1 FX9      -0.729000
     17 HA         -10.5040   139.0180    13.2880 h1         1 FX9       0.039700
     18 HB2         -9.2100   139.6390    11.3730 hc         1 FX9       0.040700
     19 HB3        -10.6560   138.7740    10.8730 hc         1 FX9       0.040700
     20 HD1         -6.9990   138.7310    10.9840 ha         1 FX9       0.114000
     21 HZ          -6.5960   135.1720     8.6580 ha         1 FX9       0.109000
     22 HD2        -10.4680   136.4420    10.0320 ha         1 FX9       0.156000
     23 HE1         -5.5900   137.1220     9.7590 ha         1 FX9       0.098000
     24 H           -8.8360   138.0410    14.5120 hn         1 FX9       0.385500
     25 H2          -8.2090   137.2590    13.2680 hn         1 FX9       0.385500
@<TRIPOS>BOND
     1     1     2 1   
     2     1     8 1   
     3     1    14 1   
     4     1    17 1   
     5     2     3 1   
     6     2    18 1   
     7     2    19 1   
     8     3     4 ar  
     9     3     7 ar  
    10     4     9 ar  
    11     4    20 1   
    12     5     6 ar  
    13     5     9 ar  
    14     5    21 1   
    15     6     7 ar  
    16     6    10 1   
    17     7    22 1   
    18     8    15 1   
    19     8    16 1   
    20     9    23 1   
    21    10    11 1   
    22    10    12 1   
    23    10    13 1   
    24    14    24 1   
    25    14    25 1   
@<TRIPOS>SUBSTRUCTURE
     1 FX9         1 TEMP              0 ****  ****    0 ROOT
