@<TRIPOS>MOLECULE
FXA
   50    53     1     0     0
SMALL
abcg2


@<TRIPOS>ATOM
      1 C1          -4.2750     3.4410    -0.2820 ca         1 FXA      -0.134000
      2 C2          -3.9490     2.3580    -1.0810 ca         1 FXA       0.009000
      3 C3          -2.6390     1.9040    -1.1110 ca         1 FXA      -0.284500
      4 C10          0.2240     1.4010     0.6750 c          1 FXA       0.615700
      5 C11          1.5910     0.8470     0.4600 ca         1 FXA      -0.155600
      6 C13          1.9580    -0.2810     1.1870 ca         1 FXA      -0.065500
      7 C14          3.2100    -0.8470     1.0130 ca         1 FXA      -0.104500
      8 C15          4.1100    -0.2650     0.1340 ca         1 FXA       0.048600
      9 C16          3.7660     0.8730    -0.5800 ca         1 FXA      -0.104500
     10 N18          5.4100    -0.8330    -0.0120 n          1 FXA      -0.207200
     11 C19          5.7130    -1.4770    -1.2160 c          1 FXA       0.556200
     12 C20          7.0340    -2.0440    -1.2670 cc         1 FXA      -0.318200
     13 C21          6.2780    -0.7520     1.0360 cc         1 FXA      -0.026400
     14 C24          7.5160    -1.2940     0.9730 cd         1 FXA      -0.296000
     15 C27         -2.1350    -2.6080     1.8390 ca         1 FXA      -0.032000
     16 C4          -1.6410     2.5260    -0.3590 ca         1 FXA       0.045000
     17 C5          -1.9860     3.6010     0.4460 ca         1 FXA      -0.115000
     18 C6          -3.2950     4.0560     0.4840 ca         1 FXA      -0.047000
     19 S7          -2.2470     0.5300    -2.1570 sy         1 FXA       1.200600
     20 N8          -1.5660    -0.5860    -1.1400 nu         1 FXA      -0.903000
     21 N9          -0.3110     2.0630    -0.3870 ns         1 FXA      -0.186000
     22 O12         -0.3780     1.2410     1.7190 o          1 FXA      -0.566100
     23 C17          2.5060     1.4240    -0.4200 ca         1 FXA      -0.065500
     24 O22          4.8810    -1.5290    -2.1130 o          1 FXA      -0.542000
     25 C23          7.8930    -1.9570    -0.2200 cd         1 FXA      -0.084000
     26 C25         -2.1880    -1.1520    -0.0390 ca         1 FXA       0.628900
     27 C26         -1.4950    -2.0830     0.7380 ca         1 FXA      -0.190000
     28 C28         -3.4270    -2.1830     2.1240 ca         1 FXA       0.027000
     29 C29         -4.0290    -1.2580     1.2930 ca         1 FXA       0.405900
     30 N30         -3.4160    -0.7560     0.2290 nb         1 FXA      -0.723000
     31 CL31        -4.2780    -2.8020     3.4930 cl         1 FXA      -0.181000
     32 O32         -3.4750     0.0240    -2.7320 o          1 FXA      -0.535500
     33 O33         -1.1560     0.9000    -3.0460 o          1 FXA      -0.535500
     34 H1          -5.2950     3.7980    -0.2540 ha         1 FXA       0.122000
     35 H2          -4.7130     1.8670    -1.6650 ha         1 FXA       0.147000
     36 H13          1.2610    -0.7330     1.8800 ha         1 FXA       0.132500
     37 H14          3.4840    -1.7410     1.5590 ha         1 FXA       0.133000
     38 H16          4.4790     1.3390    -1.2460 ha         1 FXA       0.133000
     39 H20          7.3120    -2.5540    -2.1790 ha         1 FXA       0.211000
     40 H21          5.9160    -0.2240     1.9070 h4         1 FXA       0.205000
     41 H24          8.1880    -1.2110     1.8140 ha         1 FXA       0.203000
     42 H27         -1.6350    -3.3330     2.4660 ha         1 FXA       0.134000
     43 H5          -1.2200     4.0900     1.0330 ha         1 FXA       0.129000
     44 H6          -3.5470     4.9000     1.1120 ha         1 FXA       0.120000
     45 HN8         -0.6440    -0.9050    -1.4090 hn         1 FXA       0.525000
     46 HN9          0.1420     1.9990    -1.2860 hn         1 FXA       0.181000
     47 H17          2.2610     2.3260    -0.9650 ha         1 FXA       0.132500
     48 H23          8.8780    -2.3990    -0.2960 ha         1 FXA       0.188000
     49 H26         -0.4880    -2.3890     0.4870 ha         1 FXA       0.130000
     50 H29         -5.0370    -0.9100     1.4860 h4         1 FXA       0.038100
@<TRIPOS>BOND
     1     1     2 ar  
     2     1    18 ar  
     3     1    34 1   
     4     2     3 ar  
     5     2    35 1   
     6     3    16 ar  
     7     3    19 1   
     8     4     5 1   
     9     4    21 1   
    10     4    22 2   
    11     5     6 ar  
    12     5    23 ar  
    13     6     7 ar  
    14     6    36 1   
    15     7     8 ar  
    16     7    37 1   
    17     8     9 ar  
    18     8    10 1   
    19     9    23 ar  
    20     9    38 1   
    21    10    11 1   
    22    10    13 1   
    23    11    12 1   
    24    11    24 2   
    25    12    25 2   
    26    12    39 1   
    27    13    14 2   
    28    13    40 1   
    29    14    25 1   
    30    14    41 1   
    31    15    27 ar  
    32    15    28 ar  
    33    15    42 1   
    34    16    17 ar  
    35    16    21 1   
    36    17    18 ar  
    37    17    43 1   
    38    18    44 1   
    39    19    20 1   
    40    19    32 2   
    41    19    33 2   
    42    20    26 1   
    43    20    45 1   
    44    21    46 1   
    45    23    47 1   
    46    25    48 1   
    47    26    27 ar  
    48    26    30 ar  
    49    27    49 1   
    50    28    29 ar  
    51    28    31 1   
    52    29    30 ar  
    53    29    50 1   
@<TRIPOS>SUBSTRUCTURE
     1 FXA         1 TEMP              0 ****  ****    0 ROOT
