@<TRIPOS>MOLECULE
FXA
   50    53     1     0     0
SMALL
No Charge or Current Charge


@<TRIPOS>ATOM
      1 C1          -4.0890     3.3910     0.0220 ca         1 FXA      -0.134000
      2 C2          -3.7390     2.4220    -0.9310 ca         1 FXA       0.009000
      3 C3          -2.4580     1.8280    -0.9120 ca         1 FXA      -0.284500
      4 C10          0.6560     1.4180     1.1760 c          1 FXA       0.615700
      5 C11          2.0140     0.8480     0.8080 ca         1 FXA      -0.155600
      6 C13          2.9370     0.5350     1.8300 ca         1 FXA      -0.065500
      7 C14          4.2020     0.0050     1.5250 ca         1 FXA      -0.104500
      8 C15          4.5750    -0.2680     0.1900 ca         1 FXA       0.048600
      9 C16          3.6740     0.0970    -0.8320 ca         1 FXA      -0.104500
     10 N18          5.9170    -0.7120    -0.1380 n          1 FXA      -0.207200
     11 C19          6.1380    -1.6960    -1.1390 c          1 FXA       0.556200
     12 C20          7.5320    -2.1340    -1.2980 cc         1 FXA      -0.318200
     13 C21          6.9900    -0.2570     0.6450 cc         1 FXA      -0.026400
     14 C24          8.2850    -0.7090     0.4840 cd         1 FXA      -0.296000
     15 C27         -3.6880    -2.5340     1.5630 ca         1 FXA      -0.032000
     16 C4          -1.5240     2.2020     0.0910 ca         1 FXA       0.045000
     17 C5          -1.8910     3.1880     1.0330 ca         1 FXA      -0.115000
     18 C6          -3.1640     3.7780     1.0010 ca         1 FXA      -0.047000
     19 S7          -2.0960     0.5630    -2.1550 sy         1 FXA       1.200600
     20 N8          -2.1790    -0.8940    -1.3550 nu         1 FXA      -0.903000
     21 N9          -0.2280     1.6190     0.1250 ns         1 FXA      -0.186000
     22 O12          0.3640     1.6640     2.3410 o          1 FXA      -0.566100
     23 C17          2.4080     0.6310    -0.5340 ca         1 FXA      -0.065500
     24 O22          5.2430    -2.1840    -1.8170 o          1 FXA      -0.542000
     25 C23          8.5780    -1.6790    -0.5290 cd         1 FXA      -0.084000
     26 C25         -3.0970    -1.2890    -0.4310 ca         1 FXA       0.628900
     27 C26         -2.7200    -2.1310     0.6260 ca         1 FXA      -0.190000
     28 C28         -5.0020    -2.0750     1.3890 ca         1 FXA       0.027000
     29 C29         -5.2850    -1.2410     0.2880 ca         1 FXA       0.405900
     30 N30         -4.3490    -0.8550    -0.6130 nb         1 FXA      -0.723000
     31 Cl31        -6.2660    -2.5400     2.5260 cl         1 FXA      -0.181000
     32 O32         -3.1500     0.5000    -3.1720 o          1 FXA      -0.535500
     33 O33         -0.6780     0.6180    -2.5140 o          1 FXA      -0.535500
     34 H1          -5.0780     3.8440    -0.0020 ha         1 FXA       0.122000
     35 H2          -4.4760     2.1320    -1.6780 ha         1 FXA       0.147000
     36 H13          2.6780     0.7030     2.8740 ha         1 FXA       0.132500
     37 H14          4.8750    -0.2320     2.3450 ha         1 FXA       0.133000
     38 H16          3.9560    -0.0150    -1.8760 ha         1 FXA       0.133000
     39 H20          7.6870    -2.8770    -2.0720 ha         1 FXA       0.211000
     40 H21          6.7060     0.5090     1.3600 h4         1 FXA       0.205000
     41 H24          9.0820    -0.3160     1.1130 ha         1 FXA       0.203000
     42 H27         -3.4280    -3.1830     2.3970 ha         1 FXA       0.134000
     43 H5          -1.1890     3.5220     1.7910 ha         1 FXA       0.129000
     44 H6          -3.4320     4.5360     1.7340 ha         1 FXA       0.120000
     45 HN8         -1.2280    -1.1620    -1.1740 hn         1 FXA       0.525000
     46 HN9          0.1200     1.3290    -0.7790 hn         1 FXA       0.181000
     47 H17          1.7560     0.8870    -1.3650 ha         1 FXA       0.132500
     48 H23          9.5930    -2.0460    -0.6830 ha         1 FXA       0.188000
     49 H26         -1.6920    -2.4670     0.7240 ha         1 FXA       0.130000
     50 H29         -6.2970    -0.8710     0.1230 h4         1 FXA       0.038100
@<TRIPOS>BOND
     1     1     2 ar  
     2     1    18 ar  
     3     1    34 1   
     4     2     3 ar  
     5     2    35 1   
     6     3    16 ar  
     7     3    19 1   
     8     4     5 1   
     9     4    21 1   
    10     4    22 2   
    11     5     6 ar  
    12     5    23 ar  
    13     6     7 ar  
    14     6    36 1   
    15     7     8 ar  
    16     7    37 1   
    17     8     9 ar  
    18     8    10 1   
    19     9    23 ar  
    20     9    38 1   
    21    10    11 1   
    22    10    13 1   
    23    11    12 1   
    24    11    24 2   
    25    12    25 2   
    26    12    39 1   
    27    13    14 2   
    28    13    40 1   
    29    14    25 1   
    30    14    41 1   
    31    15    27 ar  
    32    15    28 ar  
    33    15    42 1   
    34    16    17 ar  
    35    16    21 1   
    36    17    18 ar  
    37    17    43 1   
    38    18    44 1   
    39    19    20 1   
    40    19    32 2   
    41    19    33 2   
    42    20    26 1   
    43    20    45 1   
    44    21    46 1   
    45    23    47 1   
    46    25    48 1   
    47    26    27 ar  
    48    26    30 ar  
    49    27    49 1   
    50    28    29 ar  
    51    28    31 1   
    52    29    30 ar  
    53    29    50 1   
@<TRIPOS>SUBSTRUCTURE
     1 FXA         1 TEMP              0 ****  ****    0 ROOT
