@<TRIPOS>MOLECULE
FXB
   46    49     1     0     0
SMALL
abcg2


@<TRIPOS>ATOM
      1 C11          0.1780     0.2580     0.0820 cc         1 FXB      -0.084000
      2 C13          2.4250     0.1210     0.0920 cd         1 FXB      -0.173600
      3 C14          1.8850    -1.1530     0.1050 cc         1 FXB      -0.126300
      4 C17         -0.5670    -2.8690    -1.1660 c3         1 FXB      -0.103100
      5 C01         -5.1770    -2.8100     0.3400 c2         1 FXB      -0.289000
      6 C02         -4.4100    -2.0700    -0.4500 c2         1 FXB      -0.231200
      7 C03         -4.2430    -0.5970    -0.2880 c3         1 FXB       0.199800
      8 C05         -2.3940     0.9120    -0.0640 ca         1 FXB       0.157100
      9 C06         -3.2380     2.0370    -0.0950 ca         1 FXB      -0.180000
     10 C07         -2.7290     3.3210    -0.0560 ca         1 FXB      -0.079000
     11 C08         -1.3510     3.5380     0.0100 ca         1 FXB      -0.082000
     12 C09         -0.5350     2.4360     0.0500 ca         1 FXB      -0.138600
     13 C10         -1.0240     1.1180     0.0340 ca         1 FXB      -0.035000
     14 C12          1.3270     1.0160     0.0780 cd         1 FXB      -0.198600
     15 C18         -0.1010    -3.1540     1.3240 c3         1 FXB      -0.103100
     16 C19          2.7060    -2.3960     0.0940 c6         1 FXB      -0.011100
     17 C20          4.0850    -2.0730    -0.4800 c6         1 FXB      -0.066400
     18 C21          4.7200    -0.8640     0.1960 c6         1 FXB      -0.179400
     19 C22          3.8550     0.3730     0.1220 c          1 FXB       0.603700
     20 C24          0.9720     2.4270     0.0780 c          1 FXB       0.622300
     21 N15          0.5150    -1.0610     0.1220 na         1 FXB       0.072000
     22 O04         -2.8500    -0.3470    -0.1260 os         1 FXB      -0.360100
     23 O23          4.3220     1.4980     0.1230 o          1 FXB      -0.508100
     24 O25          1.6700     3.4150     0.0920 o          1 FXB      -0.473100
     25 H1          -1.3780    -1.7420     0.4340 h1         1 FXB       0.091700
     26 H2           0.3610    -3.3300    -1.5040 hc         1 FXB       0.047200
     27 H3          -1.3220    -3.6520    -1.1010 hc         1 FXB       0.047200
     28 H4          -0.8870    -2.1540    -1.9230 hc         1 FXB       0.047200
     29 H5          -5.3020    -3.8710     0.1710 ha         1 FXB       0.167500
     30 H6          -5.7140    -2.3840     1.1790 ha         1 FXB       0.167500
     31 H7          -3.8850    -2.5250    -1.2850 ha         1 FXB       0.181000
     32 H8          -4.6120    -0.0750    -1.1780 h1         1 FXB       0.044200
     33 H9          -4.8040    -0.2330     0.5780 h1         1 FXB       0.044200
     34 H10         -4.3100     1.9120    -0.1540 ha         1 FXB       0.116000
     35 H11         -3.4130     4.1580    -0.0840 ha         1 FXB       0.118000
     36 H12         -0.9420     4.5400     0.0240 ha         1 FXB       0.138000
     37 H13          0.0520    -2.6190     2.2610 hc         1 FXB       0.047200
     38 H14         -0.9560    -3.8180     1.4590 hc         1 FXB       0.047200
     39 H15          0.7660    -3.7830     1.1380 hc         1 FXB       0.047200
     40 H16          2.8130    -2.7900     1.1100 hc         1 FXB       0.053200
     41 H17          2.2420    -3.1830    -0.5010 hc         1 FXB       0.053200
     42 H18          4.7350    -2.9410    -0.3670 hc         1 FXB       0.049200
     43 H19          3.9900    -1.8850    -1.5530 hc         1 FXB       0.049200
     44 H20          4.8840    -1.0810     1.2590 hc         1 FXB       0.068200
     45 H21          5.6990    -0.6420    -0.2310 hc         1 FXB       0.068200
     46 C16         -0.4240    -2.1920     0.1900 c3         1 FXB       0.073300
@<TRIPOS>BOND
     1     1    13 1   
     2     1    14 2   
     3     1    21 1   
     4     2     3 2   
     5     2    14 1   
     6     2    19 1   
     7     3    16 1   
     8     3    21 1   
     9     4    26 1   
    10     4    27 1   
    11     4    28 1   
    12     4    46 1   
    13     5     6 2   
    14     5    29 1   
    15     5    30 1   
    16     6     7 1   
    17     6    31 1   
    18     7    22 1   
    19     7    32 1   
    20     7    33 1   
    21     8     9 ar  
    22     8    13 ar  
    23     8    22 1   
    24     9    10 ar  
    25     9    34 1   
    26    10    11 ar  
    27    10    35 1   
    28    11    12 ar  
    29    11    36 1   
    30    12    13 ar  
    31    12    20 1   
    32    14    20 1   
    33    15    37 1   
    34    15    38 1   
    35    15    39 1   
    36    15    46 1   
    37    16    17 1   
    38    16    40 1   
    39    16    41 1   
    40    17    18 1   
    41    17    42 1   
    42    17    43 1   
    43    18    19 1   
    44    18    44 1   
    45    18    45 1   
    46    19    23 2   
    47    20    24 2   
    48    21    46 1   
    49    25    46 1   
@<TRIPOS>SUBSTRUCTURE
     1 FXB         1 TEMP              0 ****  ****    0 ROOT
