@<TRIPOS>MOLECULE
FXB
   46    49     1     0     0
SMALL
No Charge or Current Charge


@<TRIPOS>ATOM
      1 C11          0.1060     0.2710     0.0710 cc         1 FXB      -0.084000
      2 C13          2.3480     0.0950     0.1810 cd         1 FXB      -0.173600
      3 C14          1.8330    -1.1900     0.1420 cc         1 FXB      -0.126300
      4 C17         -0.8810    -2.8200    -1.1280 c3         1 FXB      -0.103100
      5 C01         -4.3130    -2.9230     0.4770 c2         1 FXB      -0.289000
      6 C02         -4.4720    -2.0630    -0.5440 c2         1 FXB      -0.231200
      7 C03         -4.3200    -0.5590    -0.4580 c3         1 FXB       0.199800
      8 C05         -2.4200     0.9920    -0.1780 ca         1 FXB       0.157100
      9 C06         -3.2590     2.1360    -0.2310 ca         1 FXB      -0.180000
     10 C07         -2.7180     3.4390    -0.1400 ca         1 FXB      -0.079000
     11 C08         -1.3300     3.6300    -0.0110 ca         1 FXB      -0.082000
     12 C09         -0.5080     2.4960     0.0460 ca         1 FXB      -0.138600
     13 C10         -1.0320     1.1950    -0.0120 ca         1 FXB      -0.035000
     14 C12          1.2520     0.9800     0.1390 cd         1 FXB      -0.198600
     15 C18         -0.1870    -3.2900     1.2960 c3         1 FXB      -0.103100
     16 C19          2.6960    -2.4320     0.0850 c6         1 FXB      -0.011100
     17 C20          4.1120    -2.0850    -0.4410 c6         1 FXB      -0.066400
     18 C21          4.7100    -0.8620     0.3030 c6         1 FXB      -0.179400
     19 C22          3.8100     0.3830     0.2180 c          1 FXB       0.603700
     20 C24          0.9850     2.4320     0.1390 c          1 FXB       0.622300
     21 N15          0.4150    -1.0930     0.1480 na         1 FXB       0.072000
     22 O04         -2.9200    -0.2830    -0.3160 os         1 FXB      -0.360100
     23 O23          4.2830     1.5100     0.1570 o          1 FXB      -0.508100
     24 O25          1.7730     3.3670     0.1960 o          1 FXB      -0.473100
     25 H1          -1.4730    -1.7720     0.6480 h1         1 FXB       0.091700
     26 H2           0.0050    -3.2910    -1.5690 hc         1 FXB       0.047200
     27 H3          -1.6670    -3.5800    -1.0390 hc         1 FXB       0.047200
     28 H4          -1.2360    -2.0450    -1.8170 hc         1 FXB       0.047200
     29 H5          -4.4360    -3.9990     0.3440 ha         1 FXB       0.167500
     30 H6          -4.0530    -2.5800     1.4800 ha         1 FXB       0.167500
     31 H7          -4.7290    -2.4250    -1.5410 ha         1 FXB       0.181000
     32 H8          -4.7180    -0.0910    -1.3680 h1         1 FXB       0.044200
     33 H9          -4.8820    -0.1780     0.4050 h1         1 FXB       0.044200
     34 H10         -4.3330     2.0360    -0.3520 ha         1 FXB       0.116000
     35 H11         -3.3780     4.3020    -0.1880 ha         1 FXB       0.118000
     36 H12         -0.9060     4.6320     0.0370 ha         1 FXB       0.138000
     37 H13          0.1400    -2.8270     2.2350 hc         1 FXB       0.047200
     38 H14         -1.0620    -3.9130     1.5150 hc         1 FXB       0.047200
     39 H15          0.6040    -3.9560     0.9360 hc         1 FXB       0.047200
     40 H16          2.7820    -2.8800     1.0850 hc         1 FXB       0.053200
     41 H17          2.2530    -3.1970    -0.5660 hc         1 FXB       0.053200
     42 H18          4.7750    -2.9550    -0.3310 hc         1 FXB       0.049200
     43 H19          4.0600    -1.8660    -1.5170 hc         1 FXB       0.049200
     44 H20          4.7510    -1.1320     1.3670 hc         1 FXB       0.068200
     45 H21          5.7300    -0.6140    -0.0180 hc         1 FXB       0.068200
     46 C16         -0.5550    -2.2100     0.2520 c3         1 FXB       0.073300
@<TRIPOS>BOND
     1     1    13 1   
     2     1    14 2   
     3     1    21 1   
     4     2     3 2   
     5     2    14 1   
     6     2    19 1   
     7     3    16 1   
     8     3    21 1   
     9     4    26 1   
    10     4    27 1   
    11     4    28 1   
    12     4    46 1   
    13     5     6 2   
    14     5    29 1   
    15     5    30 1   
    16     6     7 1   
    17     6    31 1   
    18     7    22 1   
    19     7    32 1   
    20     7    33 1   
    21     8     9 ar  
    22     8    13 ar  
    23     8    22 1   
    24     9    10 ar  
    25     9    34 1   
    26    10    11 ar  
    27    10    35 1   
    28    11    12 ar  
    29    11    36 1   
    30    12    13 ar  
    31    12    20 1   
    32    14    20 1   
    33    15    37 1   
    34    15    38 1   
    35    15    39 1   
    36    15    46 1   
    37    16    17 1   
    38    16    40 1   
    39    16    41 1   
    40    17    18 1   
    41    17    42 1   
    42    17    43 1   
    43    18    19 1   
    44    18    44 1   
    45    18    45 1   
    46    19    23 2   
    47    20    24 2   
    48    21    46 1   
    49    25    46 1   
@<TRIPOS>SUBSTRUCTURE
     1 FXB         1 TEMP              0 ****  ****    0 ROOT
