@<TRIPOS>MOLECULE
FXC
   25    25     1     0     0
SMALL
abcg2


@<TRIPOS>ATOM
      1 CA         -33.7030    29.1680    -7.3260 c3         1 FXC       0.020500
      2 CB         -33.8160    29.5520    -8.8080 c3         1 FXC      -0.021100
      3 CG         -34.9830    30.4460    -9.1090 ca         1 FXC      -0.039300
      4 CD1        -34.8250    31.8270    -9.1680 ca         1 FXC      -0.049000
      5 CE1        -35.9030    32.6590    -9.4380 ca         1 FXC      -0.121000
      6 CZ         -37.1600    32.1230    -9.6590 ca         1 FXC      -0.084000
      7 CE2        -37.3300    30.7430    -9.6030 ca         1 FXC      -0.207300
      8 C09        -38.6850    30.1830    -9.8990 c3         1 FXC       0.353300
      9 CD2        -36.2520    29.9130    -9.3280 ca         1 FXC      -0.062000
     10 C          -33.5500    30.4450    -6.4630 c          1 FXC       0.715000
     11 F10        -38.7830    28.8780    -9.6300 f          1 FXC      -0.126000
     12 F11        -39.6470    30.8000    -9.1980 f          1 FXC      -0.126000
     13 F12        -39.0070    30.3380   -11.1940 f          1 FXC      -0.126000
     14 N          -32.5380    28.3000    -7.1820 n8         1 FXC      -0.971200
     15 OXT        -34.5160    30.7400    -5.7330 o          1 FXC      -0.721000
     16 O          -32.4830    31.0770    -6.5910 o          1 FXC      -0.721000
     17 HA         -34.6390    28.6710    -7.0330 h1         1 FXC       0.007700
     18 HB2        -33.8950    28.6370    -9.4030 hc         1 FXC       0.039700
     19 HB3        -32.8860    30.0420    -9.1030 hc         1 FXC       0.039700
     20 HD1        -33.8450    32.2550    -8.9960 ha         1 FXC       0.141000
     21 HE1        -35.7610    33.7310    -9.4800 ha         1 FXC       0.106000
     22 HZ         -37.9920    32.7800    -9.8760 ha         1 FXC       0.106000
     23 HD2        -36.3770    28.8380    -9.2910 ha         1 FXC       0.117000
     24 H          -32.4170    28.0520    -6.2080 hn         1 FXC       0.364500
     25 H2         -32.7200    27.4250    -7.6600 hn         1 FXC       0.364500
@<TRIPOS>BOND
     1     1     2 1   
     2     1    10 1   
     3     1    14 1   
     4     1    17 1   
     5     2     3 1   
     6     2    18 1   
     7     2    19 1   
     8     3     4 ar  
     9     3     9 ar  
    10     4     5 ar  
    11     4    20 1   
    12     5     6 ar  
    13     5    21 1   
    14     6     7 ar  
    15     6    22 1   
    16     7     8 1   
    17     7     9 ar  
    18     8    11 1   
    19     8    12 1   
    20     8    13 1   
    21     9    23 1   
    22    10    15 1   
    23    10    16 1   
    24    14    24 1   
    25    14    25 1   
@<TRIPOS>SUBSTRUCTURE
     1 FXC         1 TEMP              0 ****  ****    0 ROOT
