@<TRIPOS>MOLECULE
FXC
   25    25     1     0     0
SMALL
No Charge or Current Charge


@<TRIPOS>ATOM
      1 CA         -33.6780    29.1920    -7.3680 c3         1 FXC       0.020500
      2 CB         -33.6980    29.6940    -8.8370 c3         1 FXC      -0.021100
      3 CG         -34.9140    30.5620    -9.1450 ca         1 FXC      -0.039300
      4 CD1        -34.7800    31.9580    -9.2690 ca         1 FXC      -0.049000
      5 CE1        -35.9020    32.7510    -9.5600 ca         1 FXC      -0.121000
      6 CZ         -37.1640    32.1580    -9.7240 ca         1 FXC      -0.084000
      7 CE2        -37.3180    30.7600    -9.5930 ca         1 FXC      -0.207300
      8 C09        -38.6900    30.1010    -9.7810 c3         1 FXC       0.353300
      9 CD2        -36.1820    29.9710    -9.3110 ca         1 FXC      -0.062000
     10 C          -33.5730    30.3940    -6.3350 c          1 FXC       0.715000
     11 F10        -38.8490    29.0150    -8.9900 f          1 FXC      -0.126000
     12 F11        -39.7120    30.9400    -9.4920 f          1 FXC      -0.126000
     13 F12        -38.8660    29.6900   -11.0570 f          1 FXC      -0.126000
     14 N          -32.6650    28.0860    -7.2080 n8         1 FXC      -0.971200
     15 OXT        -34.3140    30.3770    -5.3590 o          1 FXC      -0.721000
     16 O          -32.7290    31.2650    -6.5130 o          1 FXC      -0.721000
     17 HA         -34.6510    28.7170    -7.1850 h1         1 FXC       0.007700
     18 HB2        -33.7030    28.8290    -9.5130 hc         1 FXC       0.039700
     19 HB3        -32.7700    30.2360    -9.0540 hc         1 FXC       0.039700
     20 HD1        -33.8070    32.4280    -9.1420 ha         1 FXC       0.141000
     21 HE1        -35.7920    33.8280    -9.6590 ha         1 FXC       0.106000
     22 HZ         -38.0190    32.7900    -9.9550 ha         1 FXC       0.106000
     23 HD2        -36.2780    28.8910    -9.2210 ha         1 FXC       0.117000
     24 H          -32.7580    27.6790    -6.2690 hn         1 FXC       0.364500
     25 H2         -32.9030    27.3120    -7.8390 hn         1 FXC       0.364500
@<TRIPOS>BOND
     1     1     2 1   
     2     1    10 1   
     3     1    14 1   
     4     1    17 1   
     5     2     3 1   
     6     2    18 1   
     7     2    19 1   
     8     3     4 ar  
     9     3     9 ar  
    10     4     5 ar  
    11     4    20 1   
    12     5     6 ar  
    13     5    21 1   
    14     6     7 ar  
    15     6    22 1   
    16     7     8 1   
    17     7     9 ar  
    18     8    11 1   
    19     8    12 1   
    20     8    13 1   
    21     9    23 1   
    22    10    15 1   
    23    10    16 1   
    24    14    24 1   
    25    14    25 1   
@<TRIPOS>SUBSTRUCTURE
     1 FXC         1 TEMP              0 ****  ****    0 ROOT
