@<TRIPOS>MOLECULE
FXD
   44    46     1     0     0
SMALL
abcg2


@<TRIPOS>ATOM
      1 N16         -4.3480     0.2630    -1.0480 no         1 FXD       0.696200
      2 C15         -4.1530     1.2120     0.0390 ca         1 FXD      -0.133200
      3 C2           2.5180    -1.0640     0.0330 ca         1 FXD      -0.035900
      4 C1           1.4080    -0.4060    -0.4780 ca         1 FXD       0.152100
      5 C10         -3.0150     2.0160     0.0780 ca         1 FXD      -0.088600
      6 C9          -1.9980     2.0540    -1.0290 c          1 FXD       0.622700
      7 C12         -3.8150     2.9230     2.1700 ca         1 FXD      -0.073000
      8 C14         -5.1110     1.2510     1.0380 ca         1 FXD      -0.057000
      9 C7           0.3450     1.6270    -1.5580 c3         1 FXD       0.157300
     10 C6           1.5140     0.9010    -0.9470 ca         1 FXD      -0.107300
     11 C5           2.7520     1.5290    -0.8930 ca         1 FXD      -0.056000
     12 C4           3.8540     0.8600    -0.3830 ca         1 FXD      -0.026900
     13 C3           3.7560    -0.4410     0.0820 ca         1 FXD      -0.041000
     14 O17         -2.2910     2.3620    -2.1690 o          1 FXD      -0.566100
     15 C11         -2.8660     2.8770     1.1570 ca         1 FXD      -0.098000
     16 C13         -4.9340     2.1080     2.1120 ca         1 FXD      -0.105000
     17 O18         -5.4840    -0.0410    -1.3290 o          1 FXD      -0.386500
     18 O19         -3.3680    -0.1770    -1.5950 o          1 FXD      -0.386500
     19 N8          -0.7560     1.7440    -0.6270 ns         1 FXD      -0.504900
     20 BR1          5.5210     1.7330    -0.3220 br         1 FXD      -0.074100
     21 O20          0.2100    -1.0650    -0.5670 os         1 FXD      -0.336200
     22 C21         -0.5630    -1.1010     0.5440 c          1 FXD       0.623700
     23 O22         -0.2710    -0.5030     1.5440 o          1 FXD      -0.478000
     24 C25         -1.7780    -1.9110     0.3610 ca         1 FXD      -0.137600
     25 C30         -2.8130    -1.7390     1.2790 ca         1 FXD      -0.048000
     26 C29         -3.9940    -2.4460     1.1320 ca         1 FXD      -0.127500
     27 C26         -1.9240    -2.8110    -0.6920 ca         1 FXD      -0.048000
     28 C27         -3.1020    -3.5280    -0.8250 ca         1 FXD      -0.127500
     29 C28         -4.1390    -3.3420     0.0790 ca         1 FXD      -0.067000
     30 H1          -3.6760     3.6000     3.0020 ha         1 FXD       0.129000
     31 H2          -5.9770     0.6060     0.9990 ha         1 FXD       0.150000
     32 H3           0.6780     2.6100    -1.8980 h1         1 FXD       0.068700
     33 H4           0.0020     1.0850    -2.4430 h1         1 FXD       0.068700
     34 H5           2.8430     2.5450    -1.2520 ha         1 FXD       0.138000
     35 H6           4.6170    -0.9620     0.4760 ha         1 FXD       0.149000
     36 H7          -2.0050     3.5320     1.2020 ha         1 FXD       0.131000
     37 H8          -5.6720     2.1330     2.9020 ha         1 FXD       0.130000
     38 H9          -0.5720     1.6330     0.3580 hn         1 FXD       0.332500
     39 H10         -2.7020    -1.0390     2.0970 ha         1 FXD       0.130500
     40 H11         -4.8000    -2.3010     1.8380 ha         1 FXD       0.120000
     41 H12         -1.1290    -2.9610    -1.4100 ha         1 FXD       0.130500
     42 H13         -3.2120    -4.2320    -1.6390 ha         1 FXD       0.120000
     43 H14         -5.0610    -3.8970    -0.0340 ha         1 FXD       0.119000
     44 BR2          2.3490    -2.8320     0.6380 br         1 FXD      -0.058100
@<TRIPOS>BOND
     1     1     2 1   
     2     1    17 1   
     3     1    18 1   
     4     2     5 ar  
     5     2     8 ar  
     6     3     4 ar  
     7     3    13 ar  
     8     3    44 1   
     9     4    10 ar  
    10     4    21 1   
    11     5     6 1   
    12     5    15 ar  
    13     6    14 2   
    14     6    19 1   
    15     7    15 ar  
    16     7    16 ar  
    17     7    30 1   
    18     8    16 ar  
    19     8    31 1   
    20     9    10 1   
    21     9    19 1   
    22     9    32 1   
    23     9    33 1   
    24    10    11 ar  
    25    11    12 ar  
    26    11    34 1   
    27    12    13 ar  
    28    12    20 1   
    29    13    35 1   
    30    15    36 1   
    31    16    37 1   
    32    19    38 1   
    33    21    22 1   
    34    22    23 2   
    35    22    24 1   
    36    24    25 ar  
    37    24    27 ar  
    38    25    26 ar  
    39    25    39 1   
    40    26    29 ar  
    41    26    40 1   
    42    27    28 ar  
    43    27    41 1   
    44    28    29 ar  
    45    28    42 1   
    46    29    43 1   
@<TRIPOS>SUBSTRUCTURE
     1 FXD         1 TEMP              0 ****  ****    0 ROOT
