@<TRIPOS>MOLECULE
FXD
   44    46     1     0     0
SMALL
No Charge or Current Charge


@<TRIPOS>ATOM
      1 N16         -4.8460     0.6870    -1.4840 no         1 FXD       0.696200
      2 C15         -4.3720     1.2460    -0.1860 ca         1 FXD      -0.133200
      3 C2           2.7110    -0.9010     0.2280 ca         1 FXD      -0.035900
      4 C1           1.5610    -0.3660    -0.3880 ca         1 FXD       0.152100
      5 C10         -3.0350     1.7150    -0.0050 ca         1 FXD      -0.088600
      6 C9          -2.0330     1.7520    -1.1490 c          1 FXD       0.622700
      7 C12         -3.5620     2.1600     2.3540 ca         1 FXD      -0.073000
      8 C14         -5.2770     1.2530     0.8980 ca         1 FXD      -0.057000
      9 C7           0.3930     1.4870    -1.7240 c3         1 FXD       0.157300
     10 C6           1.6160     0.8940    -1.0310 ca         1 FXD      -0.107300
     11 C5           2.8330     1.6060    -1.0400 ca         1 FXD      -0.056000
     12 C4           3.9750     1.0700    -0.4200 ca         1 FXD      -0.026900
     13 C3           3.9170    -0.1830     0.2120 ca         1 FXD      -0.041000
     14 O17         -2.3590     1.8480    -2.3240 o          1 FXD      -0.566100
     15 C11         -2.6530     2.1660     1.2840 ca         1 FXD      -0.098000
     16 C13         -4.8730     1.7070     2.1620 ca         1 FXD      -0.105000
     17 O18         -5.9340     1.0950    -1.9140 o          1 FXD      -0.386500
     18 O19         -4.2780    -0.3260    -1.9110 o          1 FXD      -0.386500
     19 N8          -0.7070     1.7080    -0.7860 ns         1 FXD      -0.504900
     20 Br1          5.6170     2.0490    -0.4420 br         1 FXD      -0.074100
     21 O20          0.3810    -1.0690    -0.3500 os         1 FXD      -0.336200
     22 C21         -0.4770    -0.9930     0.7150 c          1 FXD       0.623700
     23 O22         -0.2800    -0.2560     1.6730 o          1 FXD      -0.478000
     24 C25         -1.7740    -1.7390     0.5130 ca         1 FXD      -0.137600
     25 C30         -2.8430    -1.5440     1.4160 ca         1 FXD      -0.048000
     26 C29         -4.0630    -2.2180     1.2360 ca         1 FXD      -0.127500
     27 C26         -1.9510    -2.6270    -0.5730 ca         1 FXD      -0.048000
     28 C27         -3.1710    -3.3040    -0.7460 ca         1 FXD      -0.127500
     29 C28         -4.2280    -3.0990     0.1560 ca         1 FXD      -0.067000
     30 H1          -3.2490     2.5150     3.3340 ha         1 FXD       0.129000
     31 H2          -6.2950     0.8890     0.7650 ha         1 FXD       0.150000
     32 H3           0.6470     2.4430    -2.1990 h1         1 FXD       0.068700
     33 H4           0.0620     0.7970    -2.5120 h1         1 FXD       0.068700
     34 H5           2.8970     2.5760    -1.5290 ha         1 FXD       0.138000
     35 H6           4.8040    -0.5940     0.6880 ha         1 FXD       0.149000
     36 H7          -1.6520     2.5500     1.4690 ha         1 FXD       0.131000
     37 H8          -5.5760     1.7040     2.9920 ha         1 FXD       0.130000
     38 H9          -0.5060     1.6360     0.2040 hn         1 FXD       0.332500
     39 H10         -2.7360    -0.8620     2.2580 ha         1 FXD       0.130500
     40 H11         -4.8810    -2.0550     1.9340 ha         1 FXD       0.120000
     41 H12         -1.1480    -2.8010    -1.2870 ha         1 FXD       0.130500
     42 H13         -3.2990    -3.9850    -1.5850 ha         1 FXD       0.120000
     43 H14         -5.1730    -3.6200     0.0160 ha         1 FXD       0.119000
     44 Br2          2.6540    -2.6120     1.0970 br         1 FXD      -0.058100
@<TRIPOS>BOND
     1     1     2 1   
     2     1    17 1   
     3     1    18 1   
     4     2     5 ar  
     5     2     8 ar  
     6     3     4 ar  
     7     3    13 ar  
     8     3    44 1   
     9     4    10 ar  
    10     4    21 1   
    11     5     6 1   
    12     5    15 ar  
    13     6    14 2   
    14     6    19 1   
    15     7    15 ar  
    16     7    16 ar  
    17     7    30 1   
    18     8    16 ar  
    19     8    31 1   
    20     9    10 1   
    21     9    19 1   
    22     9    32 1   
    23     9    33 1   
    24    10    11 ar  
    25    11    12 ar  
    26    11    34 1   
    27    12    13 ar  
    28    12    20 1   
    29    13    35 1   
    30    15    36 1   
    31    16    37 1   
    32    19    38 1   
    33    21    22 1   
    34    22    23 2   
    35    22    24 1   
    36    24    25 ar  
    37    24    27 ar  
    38    25    26 ar  
    39    25    39 1   
    40    26    29 ar  
    41    26    40 1   
    42    27    28 ar  
    43    27    41 1   
    44    28    29 ar  
    45    28    42 1   
    46    29    43 1   
@<TRIPOS>SUBSTRUCTURE
     1 FXD         1 TEMP              0 ****  ****    0 ROOT
