@<TRIPOS>MOLECULE
FXE
   42    44     1     0     0
SMALL
No Charge or Current Charge


@<TRIPOS>ATOM
      1 CAA         -1.9330     3.3960     0.1930 c3         1 FXE       0.149900
      2 OAB         -1.8410     1.9620     0.1440 os         1 FXE      -0.356100
      3 CAE         -2.9630     1.1590     0.1530 ca         1 FXE       0.219100
      4 CAF         -2.8130    -0.2300     0.1030 ca         1 FXE      -0.295900
      5 CAD         -4.2830     1.6690     0.2100 ca         1 FXE      -0.254000
      6 CAN         -5.3920     0.7880     0.2160 ca         1 FXE      -0.030000
      7 CAO         -5.1930    -0.6080     0.1640 ca         1 FXE      -0.174000
      8 CAP         -3.8740    -1.0770     0.1080 ca         1 FXE       0.017800
      9 NAQ         -3.3770    -2.3660     0.0510 na         1 FXE       0.074600
     10 CAV         -4.2050    -3.5820     0.0370 c3         1 FXE       0.088900
     11 NAR         -1.9790    -2.3730     0.0070 nc         1 FXE      -0.528100
     12 CAG         -1.6490    -1.0760     0.0390 cd         1 FXE       0.466500
     13 NAH         -0.3930    -0.5360     0.0180 ns         1 FXE      -0.416400
     14 CAI          0.8200    -1.1750    -0.0410 c          1 FXE       0.663100
     15 OAC          0.9490    -2.3900    -0.0840 o          1 FXE      -0.579100
     16 NAJ          1.8720    -0.2720    -0.0440 ns         1 FXE      -0.163000
     17 CAK          3.2880    -0.4360    -0.0930 ca         1 FXE      -0.047000
     18 CAL          3.9190    -1.7000    -0.1570 ca         1 FXE      -0.079000
     19 CAM          5.3210    -1.7910    -0.2040 ca         1 FXE      -0.126000
     20 CAU          6.1060    -0.6300    -0.1880 ca         1 FXE      -0.091000
     21 CAT          5.4920     0.6310    -0.1240 ca         1 FXE      -0.179000
     22 CAS          4.0830     0.7320    -0.0770 ca         1 FXE       0.099100
     23 OAW          3.4410     1.9580    -0.0140 os         1 FXE      -0.358100
     24 CAX          4.1590     3.2050     0.0080 c3         1 FXE       0.152900
     25 HAA1        -2.4900     3.7810    -0.6700 h1         1 FXE       0.044367
     26 HAA2        -2.4350     3.7230     1.1120 h1         1 FXE       0.044367
     27 HAA3        -0.9300     3.8420     0.1760 h1         1 FXE       0.044367
     28 HAD         -4.4690     2.7380     0.2510 ha         1 FXE       0.118000
     29 HAN         -6.4030     1.1880     0.2600 ha         1 FXE       0.110000
     30 HAO         -6.0380    -1.2920     0.1680 ha         1 FXE       0.123000
     31 HAV1        -4.8660    -3.5630    -0.8370 h1         1 FXE       0.053033
     32 HAV2        -3.5640    -4.4700    -0.0120 h1         1 FXE       0.053033
     33 HAV3        -4.8100    -3.6220     0.9510 h1         1 FXE       0.053033
     34 HAH         -0.3450     0.4710     0.0490 hn         1 FXE       0.336500
     35 HAJ          1.5920     0.6990    -0.0030 hn         1 FXE       0.157000
     36 HAL          3.3470    -2.6220    -0.1720 ha         1 FXE       0.138000
     37 HAM          5.7990    -2.7680    -0.2530 ha         1 FXE       0.118000
     38 HAU          7.1910    -0.7060    -0.2240 ha         1 FXE       0.112000
     39 HAT          6.1240     1.5140    -0.1130 ha         1 FXE       0.116000
     40 HAX1         4.8190     3.2610     0.8820 h1         1 FXE       0.040700
     41 HAX2         4.7640     3.3230    -0.9000 h1         1 FXE       0.040700
     42 HAX3         3.4560     4.0460     0.0590 h1         1 FXE       0.040700
@<TRIPOS>BOND
     1     1     2 1   
     2     1    25 1   
     3     1    26 1   
     4     1    27 1   
     5     2     3 1   
     6     3     4 ar  
     7     3     5 ar  
     8     4     8 ar  
     9     4    12 1   
    10     5     6 ar  
    11     5    28 1   
    12     6     7 ar  
    13     6    29 1   
    14     7     8 ar  
    15     7    30 1   
    16     8     9 1   
    17     9    10 1   
    18     9    11 1   
    19    10    31 1   
    20    10    32 1   
    21    10    33 1   
    22    11    12 2   
    23    12    13 1   
    24    13    14 1   
    25    13    34 1   
    26    14    15 2   
    27    14    16 1   
    28    16    17 1   
    29    16    35 1   
    30    17    18 ar  
    31    17    22 ar  
    32    18    19 ar  
    33    18    36 1   
    34    19    20 ar  
    35    19    37 1   
    36    20    21 ar  
    37    20    38 1   
    38    21    22 ar  
    39    21    39 1   
    40    22    23 1   
    41    23    24 1   
    42    24    40 1   
    43    24    41 1   
    44    24    42 1   
@<TRIPOS>SUBSTRUCTURE
     1 FXE         1 TEMP              0 ****  ****    0 ROOT
