@<TRIPOS>MOLECULE
FXE
   42    44     1     0     0
SMALL
bcc


@<TRIPOS>ATOM
      1 CAA         -2.6030     3.5110    -0.8340 c3         1 FXE       0.126700
      2 OAB         -2.2490     2.1760    -0.5160 os         1 FXE      -0.332900
      3 CAE         -3.2270     1.3030    -0.2330 ca         1 FXE       0.219100
      4 CAF         -2.8170    -0.0120     0.0570 ca         1 FXE      -0.295900
      5 CAD         -4.5780     1.5860    -0.2040 ca         1 FXE      -0.272000
      6 CAN         -5.5080     0.5720     0.1090 ca         1 FXE      -0.048000
      7 CAO         -5.1420    -0.7200     0.3980 ca         1 FXE      -0.192000
      8 CAP         -3.7660    -0.9970     0.3700 ca         1 FXE       0.017800
      9 NAQ         -3.0710    -2.1290     0.6030 na         1 FXE       0.103900
     10 CAV         -3.5760    -3.4430     0.8970 c3         1 FXE       0.059600
     11 NAR         -1.7430    -1.9500     0.4500 nc         1 FXE      -0.528100
     12 CAG         -1.5690    -0.6960     0.1270 cd         1 FXE       0.466500
     13 NAH         -0.3440    -0.0970    -0.1000 ns         1 FXE      -0.483400
     14 CAI          0.8680    -0.7310    -0.1950 c          1 FXE       0.797100
     15 OAC          1.0100    -1.9340    -0.0990 o          1 FXE      -0.579100
     16 NAJ          1.8970     0.1430    -0.4220 ns         1 FXE      -0.489100
     17 CAK          3.2450    -0.2340    -0.4910 ca         1 FXE       0.045600
     18 CAL          3.6780    -1.3210    -1.2370 ca         1 FXE      -0.097000
     19 CAM          5.0260    -1.6550    -1.2870 ca         1 FXE      -0.144000
     20 CAU          5.9520    -0.8840    -0.6080 ca         1 FXE      -0.109000
     21 CAT          5.5400     0.2230     0.1260 ca         1 FXE      -0.197000
     22 CAS          4.1910     0.5470     0.1980 ca         1 FXE       0.099100
     23 OAW          3.6920     1.5910     0.8880 os         1 FXE      -0.334900
     24 CAX          4.5890     2.4430     1.5730 c3         1 FXE       0.129700
     25 HAA1        -3.2330     3.5570    -1.7250 h1         1 FXE       0.044367
     26 HAA2        -3.1210     3.9980    -0.0050 h1         1 FXE       0.044367
     27 HAA3        -1.6730     4.0380    -1.0300 h1         1 FXE       0.044367
     28 HAD         -4.9490     2.5770    -0.4230 ha         1 FXE       0.136000
     29 HAN         -6.5590     0.8340     0.1170 ha         1 FXE       0.128000
     30 HAO         -5.8800    -1.4740     0.6290 ha         1 FXE       0.141000
     31 HAV1        -3.5080    -4.0990     0.0290 h1         1 FXE       0.053033
     32 HAV2        -3.0120    -3.8810     1.7180 h1         1 FXE       0.053033
     33 HAV3        -4.6180    -3.3700     1.1980 h1         1 FXE       0.053033
     34 HAH         -0.3850     0.8980    -0.2590 hn         1 FXE       0.336500
     35 HAJ          1.7210     1.1280    -0.2910 hn         1 FXE       0.323500
     36 HAL          2.9610    -1.9080    -1.7930 ha         1 FXE       0.156000
     37 HAM          5.3430    -2.5120    -1.8670 ha         1 FXE       0.136000
     38 HAU          7.0050    -1.1310    -0.6460 ha         1 FXE       0.130000
     39 HAT          6.2800     0.8150     0.6470 ha         1 FXE       0.134000
     40 HAX1         5.1420     1.9090     2.3500 h1         1 FXE       0.040700
     41 HAX2         5.3030     2.9140     0.8920 h1         1 FXE       0.040700
     42 HAX3         3.9850     3.2160     2.0390 h1         1 FXE       0.040700
@<TRIPOS>BOND
     1     1     2 1   
     2     1    25 1   
     3     1    26 1   
     4     1    27 1   
     5     2     3 1   
     6     3     4 ar  
     7     3     5 ar  
     8     4     8 ar  
     9     4    12 1   
    10     5     6 ar  
    11     5    28 1   
    12     6     7 ar  
    13     6    29 1   
    14     7     8 ar  
    15     7    30 1   
    16     8     9 1   
    17     9    10 1   
    18     9    11 1   
    19    10    31 1   
    20    10    32 1   
    21    10    33 1   
    22    11    12 2   
    23    12    13 1   
    24    13    14 1   
    25    13    34 1   
    26    14    15 2   
    27    14    16 1   
    28    16    17 1   
    29    16    35 1   
    30    17    18 ar  
    31    17    22 ar  
    32    18    19 ar  
    33    18    36 1   
    34    19    20 ar  
    35    19    37 1   
    36    20    21 ar  
    37    20    38 1   
    38    21    22 ar  
    39    21    39 1   
    40    22    23 1   
    41    23    24 1   
    42    24    40 1   
    43    24    41 1   
    44    24    42 1   
@<TRIPOS>SUBSTRUCTURE
     1 FXE         1 TEMP              0 ****  ****    0 ROOT
