@<TRIPOS>MOLECULE
FXF
   22    22     1     0     0
SMALL
abcg2


@<TRIPOS>ATOM
      1 CD1       -113.9270    75.0330    -5.8140 ca         1 FXF      -0.050000
      2 C         -114.2290    77.1610    -8.2200 c          1 FXF       0.721000
      3 CA        -112.9370    77.7250    -7.5770 c3         1 FXF       0.021500
      4 CB        -112.8340    77.2760    -6.1000 c3         1 FXF      -0.057100
      5 CG        -112.7590    75.7860    -5.9320 ca         1 FXF      -0.041300
      6 CD2       -111.5350    75.1210    -5.9280 ca         1 FXF      -0.116000
      7 CE2       -111.4760    73.7390    -5.8130 ca         1 FXF      -0.123000
      8 CZ        -112.6360    72.9880    -5.6880 ca         1 FXF      -0.109000
      9 CE1       -113.8520    73.6560    -5.6810 ca         1 FXF      -0.008900
     10 N         -111.7610    77.4210    -8.3700 n8         1 FXF      -0.983200
     11 BR1       -115.4520    72.6650    -5.4650 br         1 FXF      -0.138100
     12 HD1       -114.8850    75.5370    -5.8260 ha         1 FXF       0.161000
     13 HA        -113.0450    78.8160    -7.5460 h1         1 FXF       0.045700
     14 HB2       -111.9390    77.7310    -5.6670 hc         1 FXF       0.035700
     15 HB3       -113.6860    77.6720    -5.5460 hc         1 FXF       0.035700
     16 HD2       -110.6170    75.6890    -6.0100 ha         1 FXF       0.101000
     17 HE2       -110.5170    73.2370    -5.8110 ha         1 FXF       0.096000
     18 HZ        -112.5850    71.9120    -5.5870 ha         1 FXF       0.109000
     19 H         -110.9230    77.5880    -7.8250 hn         1 FXF       0.376000
     20 H2        -111.7600    76.4380    -8.6110 hn         1 FXF       0.376000
     21 O         -114.1010    76.4190    -9.2110 o          1 FXF      -0.725500
     22 OXT       -115.2960    77.4970    -7.6660 o          1 FXF      -0.725500
@<TRIPOS>BOND
     1     1     5 ar  
     2     1     9 ar  
     3     1    12 1   
     4     2     3 1   
     5     2    21 1   
     6     2    22 1   
     7     3     4 1   
     8     3    10 1   
     9     3    13 1   
    10     4     5 1   
    11     4    14 1   
    12     4    15 1   
    13     5     6 ar  
    14     6     7 ar  
    15     6    16 1   
    16     7     8 ar  
    17     7    17 1   
    18     8     9 ar  
    19     8    18 1   
    20     9    11 1   
    21    10    19 1   
    22    10    20 1   
@<TRIPOS>SUBSTRUCTURE
     1 FXF         1 TEMP              0 ****  ****    0 ROOT
