@<TRIPOS>MOLECULE
FXF
   22    22     1     0     0
SMALL
No Charge or Current Charge


@<TRIPOS>ATOM
      1 CD1        113.8880    74.9440    -5.9200 ca         1 FXF      -0.050000
      2 C         -114.4340    77.4570    -8.1660 c          1 FXF       0.721000
      3 CA         112.9780    77.7420    -7.6020 c3         1 FXF       0.021500
      4 CB        -112.8380    77.2570    -6.1320 c3         1 FXF      -0.057100
      5 CG         112.7270    75.7420    -5.9690 ca         1 FXF      -0.041300
      6 CD2       -111.4650    75.1280    -5.8390 ca         1 FXF      -0.116000
      7 CE2        111.3630    73.7350    -5.6760 ca         1 FXF      -0.123000
      8 CZ        -112.5240    72.9450    -5.6370 ca         1 FXF      -0.109000
      9 CE1        113.7850    73.5510    -5.7580 ca         1 FXF      -0.008900
     10 N         -111.8080    77.2720    -8.4320 n8         1 FXF      -0.983200
     11 Br1        115.3670    72.4790    -5.7000 br         1 FXF      -0.138100
     12 HD1       -114.8700    75.4020    -6.0100 ha         1 FXF       0.161000
     13 HA         112.8970    78.8370    -7.5660 h1         1 FXF       0.045700
     14 HB2       -111.9590    77.7400    -5.6880 hc         1 FXF       0.035700
     15 HB3        113.6940    77.6310    -5.5560 hc         1 FXF       0.035700
     16 HD2       -110.5600    75.7300    -5.8640 ha         1 FXF       0.101000
     17 HE2        110.3850    73.2690    -5.5790 ha         1 FXF       0.096000
     18 HZ        -112.4460    71.8670    -5.5110 ha         1 FXF       0.109000
     19 H          110.9460    77.3670    -7.8850 hn         1 FXF       0.376000
     20 H2        -111.9020    76.2580    -8.5680 hn         1 FXF       0.376000
     21 O          114.6340    76.4250    -8.7980 o          1 FXF      -0.725500
     22 OXT       -115.2820    78.3300    -8.0370 o          1 FXF      -0.725500
@<TRIPOS>BOND
     1     1     5 ar  
     2     1     9 ar  
     3     1    12 1   
     4     2     3 1   
     5     2    21 1   
     6     2    22 1   
     7     3     4 1   
     8     3    10 1   
     9     3    13 1   
    10     4     5 1   
    11     4    14 1   
    12     4    15 1   
    13     5     6 ar  
    14     6     7 ar  
    15     6    16 1   
    16     7     8 ar  
    17     7    17 1   
    18     8     9 ar  
    19     8    18 1   
    20     9    11 1   
    21    10    19 1   
    22    10    20 1   
@<TRIPOS>SUBSTRUCTURE
     1 FXF         1 TEMP              0 ****  ****    0 ROOT
