@<TRIPOS>MOLECULE
FXG
   60    62     1     0     0
SMALL
No Charge or Current Charge


@<TRIPOS>ATOM
      1 O18         -1.9380    -0.0500    -1.5500 o          1 FXG      -0.566100
      2 C16         -1.5200     0.9640    -1.0030 c          1 FXG       0.604100
      3 C15         -0.1360     1.5390    -1.3360 c3         1 FXG      -0.158400
      4 C14          1.0010     0.6920    -0.7150 c3         1 FXG      -0.067400
      5 C13          2.4070     1.2480    -1.0300 c3         1 FXG      -0.073400
      6 C12          3.5440     0.4040    -0.4120 c3         1 FXG      -0.097400
      7 C11          4.9460     0.9620    -0.7290 c3         1 FXG       0.231800
      8 N10          5.9830     0.1210    -0.1160 nu         1 FXG      -0.911100
      9 C6           7.3610     0.2930    -0.1730 ca         1 FXG       0.447900
     10 C1           8.2350    -0.6090     0.4680 ca         1 FXG      -0.101600
     11 C2           9.5840    -0.3830     0.3740 ca         1 FXG       0.123500
     12 N9          10.1610    -1.3950     1.0750 na         1 FXG      -0.412300
     13 C8           9.1540    -2.2140     1.5810 cc         1 FXG       0.397700
     14 N7           7.9410    -1.7530     1.2220 nd         1 FXG      -0.552100
     15 N3          10.1010     0.6580    -0.3020 nb         1 FXG      -0.221000
     16 C4           9.1950     1.4770    -0.8890 ca         1 FXG       0.181900
     17 N5           7.8450     1.3480    -0.8600 nb         1 FXG      -0.301000
     18 N17         -2.2400     1.7080    -0.0770 ns         1 FXG      -0.151000
     19 C19         -3.5280     1.5350     0.5020 ca         1 FXG      -0.025000
     20 C20         -3.9950     2.5530     1.3500 ca         1 FXG      -0.152000
     21 C21         -5.2540     2.4530     1.9590 ca         1 FXG      -0.090000
     22 C22         -6.0630     1.3290     1.7300 ca         1 FXG      -0.118000
     23 C23         -5.6170     0.2840     0.8840 ca         1 FXG      -0.121600
     24 C24         -4.3440     0.4030     0.2770 ca         1 FXG      -0.083000
     25 C25         -6.4590    -0.9500     0.6130 c          1 FXG       0.606700
     26 O27         -6.0740    -1.8540    -0.1170 o          1 FXG      -0.592100
     27 N26         -7.6880    -1.0100     1.2370 ns         1 FXG      -0.503900
     28 C28         -8.6590    -2.0960     1.0760 c3         1 FXG       0.103000
     29 C29         -9.4550    -1.9740    -0.2390 c3         1 FXG      -0.095400
     30 C30        -10.4990    -3.0970    -0.4150 c3         1 FXG      -0.073400
     31 C31        -11.2970    -2.9790    -1.7280 c3         1 FXG      -0.089100
     32 H15         -0.0120     1.5410    -2.4260 hc         1 FXG       0.058200
     33 H15A        -0.0540     2.5640    -0.9540 hc         1 FXG       0.058200
     34 H14          0.8660     0.6490     0.3740 hc         1 FXG       0.058200
     35 H14A         0.9290    -0.3390    -1.0860 hc         1 FXG       0.058200
     36 H13          2.5420     1.2910    -2.1190 hc         1 FXG       0.041200
     37 H13A         2.4800     2.2780    -0.6580 hc         1 FXG       0.041200
     38 H12          3.4100     0.3630     0.6770 hc         1 FXG       0.049200
     39 H12A         3.4720    -0.6250    -0.7860 hc         1 FXG       0.049200
     40 H11          5.0840     0.9960    -1.8190 h1         1 FXG       0.054700
     41 H11A         5.0210     1.9900    -0.3470 h1         1 FXG       0.054700
     42 HN10         5.6910    -0.6980     0.4190 hn         1 FXG       0.513000
     43 H8           9.3610    -3.0940     2.1800 h5         1 FXG       0.066800
     44 H4           9.5920     2.3270    -1.4410 h5         1 FXG       0.045100
     45 HN17        -1.7530     2.5310     0.2550 hn         1 FXG       0.149000
     46 H20         -3.3810     3.4310     1.5380 ha         1 FXG       0.110000
     47 H21         -5.6050     3.2490     2.6120 ha         1 FXG       0.116000
     48 H22         -7.0320     1.2880     2.2200 ha         1 FXG       0.115000
     49 H24         -4.0010    -0.4020    -0.3660 ha         1 FXG       0.168000
     50 HN26        -7.9360    -0.2290     1.8290 hn         1 FXG       0.312500
     51 H28         -8.1300    -3.0580     1.1030 h1         1 FXG       0.052700
     52 H28A        -9.3530    -2.0700     1.9270 h1         1 FXG       0.052700
     53 H29         -9.9620    -1.0020    -0.2620 hc         1 FXG       0.041700
     54 H29A        -8.7600    -1.9930    -1.0870 hc         1 FXG       0.041700
     55 H30A        -9.9940    -4.0710    -0.3920 hc         1 FXG       0.042700
     56 H31B       -11.8440    -2.0290    -1.7660 hc         1 FXG       0.033033
     57 H31A       -10.6280    -3.0290    -2.5950 hc         1 FXG       0.033033
     58 HN9         11.1530    -1.5360     1.2120 hn         1 FXG       0.369000
     59 H30B       -11.1990    -3.0800     0.4300 hc         1 FXG       0.042700
     60 H31C       -12.0250    -3.7960    -1.8080 hc         1 FXG       0.033033
@<TRIPOS>BOND
     1     1     2 2   
     2     2     3 1   
     3     2    18 1   
     4     3     4 1   
     5     3    32 1   
     6     3    33 1   
     7     4     5 1   
     8     4    34 1   
     9     4    35 1   
    10     5     6 1   
    11     5    36 1   
    12     5    37 1   
    13     6     7 1   
    14     6    38 1   
    15     6    39 1   
    16     7     8 1   
    17     7    40 1   
    18     7    41 1   
    19     8     9 1   
    20     8    42 1   
    21     9    10 ar  
    22     9    17 ar  
    23    10    11 ar  
    24    10    14 1   
    25    11    12 1   
    26    11    15 ar  
    27    12    13 1   
    28    12    58 1   
    29    13    14 2   
    30    13    43 1   
    31    15    16 ar  
    32    16    17 ar  
    33    16    44 1   
    34    18    19 1   
    35    18    45 1   
    36    19    20 ar  
    37    19    24 ar  
    38    20    21 ar  
    39    20    46 1   
    40    21    22 ar  
    41    21    47 1   
    42    22    23 ar  
    43    22    48 1   
    44    23    24 ar  
    45    23    25 1   
    46    24    49 1   
    47    25    26 2   
    48    25    27 1   
    49    27    28 1   
    50    27    50 1   
    51    28    29 1   
    52    28    51 1   
    53    28    52 1   
    54    29    30 1   
    55    29    53 1   
    56    29    54 1   
    57    30    31 1   
    58    30    55 1   
    59    30    59 1   
    60    31    56 1   
    61    31    57 1   
    62    31    60 1   
@<TRIPOS>SUBSTRUCTURE
     1 FXG         1 TEMP              0 ****  ****    0 ROOT
