@<TRIPOS>MOLECULE
FXG
   60    62     1     0     0
SMALL
abcg2


@<TRIPOS>ATOM
      1 O18         -1.5200    -0.4340    -0.0410 o          1 FXG      -0.566100
      2 C16         -1.3050     0.7590    -0.1570 c          1 FXG       0.604100
      3 C15          0.0430     1.2990    -0.5780 c3         1 FXG      -0.158400
      4 C14          1.2100     0.5290     0.0260 c3         1 FXG      -0.067400
      5 C13          2.5490     1.0310    -0.4970 c3         1 FXG      -0.073400
      6 C12          3.7290     0.2690     0.0900 c3         1 FXG      -0.097400
      7 C11          5.0540     0.7710    -0.4590 c3         1 FXG       0.231800
      8 N10          6.1510    -0.0060     0.0790 nu         1 FXG      -0.911100
      9 C6           7.4370     0.2540    -0.1680 ca         1 FXG       0.447900
     10 C1           8.4760    -0.5770     0.2980 ca         1 FXG      -0.101600
     11 C2           9.7680    -0.1890    -0.0280 ca         1 FXG       0.123500
     12 N9          10.5650    -1.1450     0.5210 na         1 FXG      -0.412300
     13 C8           9.7440    -2.0410     1.1350 cc         1 FXG       0.397700
     14 N7           8.4820    -1.7380     1.0260 nd         1 FXG      -0.552100
     15 N3          10.1150     0.8910    -0.7300 nb         1 FXG      -0.221000
     16 C4           9.0590     1.5880    -1.1070 ca         1 FXG       0.181900
     17 N5           7.7710     1.3370    -0.8760 nb         1 FXG      -0.301000
     18 N17         -2.2490     1.7160     0.0500 ns         1 FXG      -0.151000
     19 C19         -3.5980     1.5680     0.3830 ca         1 FXG      -0.025000
     20 C20         -4.2840     2.7250     0.7630 ca         1 FXG      -0.152000
     21 C21         -5.6270     2.6730     1.0850 ca         1 FXG      -0.090000
     22 C22         -6.3200     1.4720     1.0230 ca         1 FXG      -0.118000
     23 C23         -5.6460     0.3180     0.6390 ca         1 FXG      -0.121600
     24 C24         -4.2870     0.3580     0.3370 ca         1 FXG      -0.083000
     25 C25         -6.3280    -1.0120     0.5440 c          1 FXG       0.606700
     26 O27         -5.7180    -2.0570     0.7320 o          1 FXG      -0.592100
     27 N26         -7.6300    -0.9820     0.2280 ns         1 FXG      -0.503900
     28 C28         -8.4120    -2.1880     0.0340 c3         1 FXG       0.103000
     29 C29         -9.8640    -1.8460    -0.2510 c3         1 FXG      -0.095400
     30 C30        -10.7020    -3.0910    -0.5150 c3         1 FXG      -0.073400
     31 C31        -12.1600    -2.7630    -0.8060 c3         1 FXG      -0.089100
     32 H15          0.0850     1.2290    -1.6710 hc         1 FXG       0.058200
     33 H15A         0.1320     2.3620    -0.3410 hc         1 FXG       0.058200
     34 H14          1.1840     0.6210     1.1150 hc         1 FXG       0.058200
     35 H14A         1.1070    -0.5340    -0.2000 hc         1 FXG       0.058200
     36 H13          2.5670     0.9430    -1.5890 hc         1 FXG       0.041200
     37 H13A         2.6550     2.0980    -0.2750 hc         1 FXG       0.041200
     38 H12          3.7240     0.3630     1.1800 hc         1 FXG       0.049200
     39 H12A         3.6210    -0.7970    -0.1350 hc         1 FXG       0.049200
     40 H11          5.0480     0.7130    -1.5520 h1         1 FXG       0.054700
     41 H11A         5.1890     1.8240    -0.2020 h1         1 FXG       0.054700
     42 HN10         5.9360    -0.8660     0.5580 hn         1 FXG       0.513000
     43 H8          10.1390    -2.9030     1.6500 h5         1 FXG       0.066800
     44 H4           9.2600     2.4850    -1.6840 h5         1 FXG       0.045100
     45 HN17        -1.9360     2.6710    -0.0300 hn         1 FXG       0.149000
     46 H20         -3.7570     3.6710     0.8080 ha         1 FXG       0.110000
     47 H21         -6.1360     3.5770     1.3900 ha         1 FXG       0.116000
     48 H22         -7.3670     1.4480     1.2950 ha         1 FXG       0.115000
     49 H24         -3.7850    -0.5520     0.0540 ha         1 FXG       0.168000
     50 HN26        -8.0420    -0.1100    -0.0610 hn         1 FXG       0.312500
     51 H28         -7.9970    -2.7720    -0.7940 h1         1 FXG       0.052700
     52 H28A        -8.3440    -2.8130     0.9270 h1         1 FXG       0.052700
     53 H29        -10.2830    -1.2930     0.5950 hc         1 FXG       0.041700
     54 H29A        -9.9210    -1.1830    -1.1200 hc         1 FXG       0.041700
     55 H30A       -10.2760    -3.6400    -1.3600 hc         1 FXG       0.042700
     56 H31B       -12.6290    -2.2610     0.0420 hc         1 FXG       0.033033
     57 H31A       -12.2500    -2.1030    -1.6700 hc         1 FXG       0.033033
     58 HN9         11.5710    -1.1890     0.4810 hn         1 FXG       0.369000
     59 H30B       -10.6390    -3.7610     0.3470 hc         1 FXG       0.042700
     60 H31C       -12.7360    -3.6640    -1.0170 hc         1 FXG       0.033033
@<TRIPOS>BOND
     1     1     2 2   
     2     2     3 1   
     3     2    18 1   
     4     3     4 1   
     5     3    32 1   
     6     3    33 1   
     7     4     5 1   
     8     4    34 1   
     9     4    35 1   
    10     5     6 1   
    11     5    36 1   
    12     5    37 1   
    13     6     7 1   
    14     6    38 1   
    15     6    39 1   
    16     7     8 1   
    17     7    40 1   
    18     7    41 1   
    19     8     9 1   
    20     8    42 1   
    21     9    10 ar  
    22     9    17 ar  
    23    10    11 ar  
    24    10    14 1   
    25    11    12 1   
    26    11    15 ar  
    27    12    13 1   
    28    12    58 1   
    29    13    14 2   
    30    13    43 1   
    31    15    16 ar  
    32    16    17 ar  
    33    16    44 1   
    34    18    19 1   
    35    18    45 1   
    36    19    20 ar  
    37    19    24 ar  
    38    20    21 ar  
    39    20    46 1   
    40    21    22 ar  
    41    21    47 1   
    42    22    23 ar  
    43    22    48 1   
    44    23    24 ar  
    45    23    25 1   
    46    24    49 1   
    47    25    26 2   
    48    25    27 1   
    49    27    28 1   
    50    27    50 1   
    51    28    29 1   
    52    28    51 1   
    53    28    52 1   
    54    29    30 1   
    55    29    53 1   
    56    29    54 1   
    57    30    31 1   
    58    30    55 1   
    59    30    59 1   
    60    31    56 1   
    61    31    57 1   
    62    31    60 1   
@<TRIPOS>SUBSTRUCTURE
     1 FXG         1 TEMP              0 ****  ****    0 ROOT
