@<TRIPOS>MOLECULE
FXH
   30    31     1     0     0
SMALL
abcg2


@<TRIPOS>ATOM
      1 C10          0.4740    -2.5650     0.1780 ca         1 FXH      -0.191000
      2 C13         -3.1280     2.2680     0.1160 c3         1 FXH       0.151600
      3 C15          3.2950     1.3120    -0.4110 ca         1 FXH      -0.116000
      4 C03         -0.5050    -0.3600     0.5020 ca         1 FXH      -0.110300
      5 C04         -1.6690     0.5280     0.8520 c3         1 FXH       0.218100
      6 C05          0.7590     0.2140     0.1850 ca         1 FXH       0.017000
      7 C06          1.8690    -0.6200    -0.1180 ca         1 FXH      -0.072000
      8 C07         -0.6290    -1.7330     0.4860 ca         1 FXH       0.136100
      9 C08          1.6890    -2.0210    -0.1130 ca         1 FXH      -0.055000
     10 C09          0.9670     1.6170     0.1660 ca         1 FXH      -0.094000
     11 C11          3.1260    -0.0450    -0.4130 ca         1 FXH      -0.092000
     12 C12         -2.7850     0.3600    -1.2770 c3         1 FXH       0.151600
     13 C14          2.1980     2.1470    -0.1170 ca         1 FXH      -0.105000
     14 N02         -2.1920     1.2470    -0.3000 n3         1 FXH      -0.714600
     15 O01         -1.8260    -2.2880     0.7660 oh         1 FXH      -0.539100
     16 H101         0.3470    -3.6420     0.1770 ha         1 FXH       0.112000
     17 H131        -2.6370     2.9760     0.7840 h1         1 FXH       0.029867
     18 H132        -3.4850     2.8220    -0.7540 h1         1 FXH       0.029867
     19 H133        -4.0100     1.8680     0.6410 h1         1 FXH       0.029867
     20 H151         4.2600     1.7460    -0.6370 ha         1 FXH       0.112000
     21 H041        -2.4560    -0.0520     1.3550 h1         1 FXH       0.042700
     22 H042        -1.3380     1.2730     1.5820 h1         1 FXH       0.042700
     23 H081         2.5300    -2.6650    -0.3430 ha         1 FXH       0.114000
     24 H091         0.1410     2.2850     0.3630 ha         1 FXH       0.127000
     25 H111         3.9580    -0.7010    -0.6400 ha         1 FXH       0.109000
     26 H122        -3.6530    -0.1970    -0.8880 h1         1 FXH       0.029867
     27 H123        -3.1220     0.9370    -2.1390 h1         1 FXH       0.029867
     28 H121        -2.0530    -0.3650    -1.6320 h1         1 FXH       0.029867
     29 H141         2.3290     3.2220    -0.1210 ha         1 FXH       0.111000
     30 H011        -1.7700    -3.2480     0.7140 ho         1 FXH       0.464000
@<TRIPOS>BOND
     1     1     8 ar  
     2     1     9 ar  
     3     1    16 1   
     4     2    14 1   
     5     2    17 1   
     6     2    18 1   
     7     2    19 1   
     8     3    11 ar  
     9     3    13 ar  
    10     3    20 1   
    11     4     5 1   
    12     4     6 ar  
    13     4     8 ar  
    14     5    14 1   
    15     5    21 1   
    16     5    22 1   
    17     6     7 ar  
    18     6    10 ar  
    19     7     9 ar  
    20     7    11 ar  
    21     8    15 1   
    22     9    23 1   
    23    10    13 ar  
    24    10    24 1   
    25    11    25 1   
    26    12    14 1   
    27    12    26 1   
    28    12    27 1   
    29    12    28 1   
    30    13    29 1   
    31    15    30 1   
@<TRIPOS>SUBSTRUCTURE
     1 FXH         1 TEMP              0 ****  ****    0 ROOT
