@<TRIPOS>MOLECULE
FXH
   30    31     1     0     0
SMALL
No Charge or Current Charge


@<TRIPOS>ATOM
      1 C10          0.4560    -2.5790     0.2050 ca         1 FXH      -0.191000
      2 C13         -3.2600     2.2930     0.1360 c3         1 FXH       0.151600
      3 C15          3.3330     1.2930    -0.4450 ca         1 FXH      -0.116000
      4 C03         -0.4820    -0.3380     0.5220 ca         1 FXH      -0.110300
      5 C04         -1.6790     0.5570     0.8800 c3         1 FXH       0.218100
      6 C05          0.7870     0.2230     0.1990 ca         1 FXH       0.017000
      7 C06          1.8740    -0.6320    -0.1150 ca         1 FXH      -0.072000
      8 C07         -0.6290    -1.7480     0.5200 ca         1 FXH       0.136100
      9 C08          1.7030    -2.0260    -0.1110 ca         1 FXH      -0.055000
     10 C09          1.0040     1.6220     0.1790 ca         1 FXH      -0.094000
     11 C11          3.1370    -0.0960    -0.4340 ca         1 FXH      -0.092000
     12 C12         -2.7550     0.3960    -1.3430 c3         1 FXH       0.151600
     13 C14          2.2660     2.1510    -0.1400 ca         1 FXH      -0.105000
     14 N02         -2.2530     1.2930    -0.2770 n3         1 FXH      -0.714600
     15 O01         -1.8240    -2.3340     0.8240 oh         1 FXH      -0.539100
     16 H101         0.3390    -3.6600     0.2040 ha         1 FXH       0.112000
     17 H131        -2.8340     2.9950     0.8650 h1         1 FXH       0.029867
     18 H132        -3.6080     2.8750    -0.7280 h1         1 FXH       0.029867
     19 H133        -4.1310     1.8050     0.5950 h1         1 FXH       0.029867
     20 H151         4.3090     1.7040    -0.6920 ha         1 FXH       0.112000
     21 H041        -2.4670    -0.0350     1.3640 h1         1 FXH       0.042700
     22 H042        -1.3460     1.2720     1.6450 h1         1 FXH       0.042700
     23 H081         2.5370    -2.6830    -0.3520 ha         1 FXH       0.114000
     24 H091         0.2020     2.3190     0.4040 ha         1 FXH       0.127000
     25 H111         3.9680    -0.7550    -0.6730 ha         1 FXH       0.109000
     26 H122        -3.5700    -0.2380    -0.9690 h1         1 FXH       0.029867
     27 H123        -3.1360     0.9800    -2.1920 h1         1 FXH       0.029867
     28 H121        -1.9560    -0.2550    -1.7200 h1         1 FXH       0.029867
     29 H141         2.4160     3.2280    -0.1510 ha         1 FXH       0.111000
     30 H011        -1.7160    -3.3070     0.7660 ho         1 FXH       0.464000
@<TRIPOS>BOND
     1     1     8 ar  
     2     1     9 ar  
     3     1    16 1   
     4     2    14 1   
     5     2    17 1   
     6     2    18 1   
     7     2    19 1   
     8     3    11 ar  
     9     3    13 ar  
    10     3    20 1   
    11     4     5 1   
    12     4     6 ar  
    13     4     8 ar  
    14     5    14 1   
    15     5    21 1   
    16     5    22 1   
    17     6     7 ar  
    18     6    10 ar  
    19     7     9 ar  
    20     7    11 ar  
    21     8    15 1   
    22     9    23 1   
    23    10    13 ar  
    24    10    24 1   
    25    11    25 1   
    26    12    14 1   
    27    12    26 1   
    28    12    27 1   
    29    12    28 1   
    30    13    29 1   
    31    15    30 1   
@<TRIPOS>SUBSTRUCTURE
     1 FXH         1 TEMP              0 ****  ****    0 ROOT
