@<TRIPOS>MOLECULE
FXI
   67    70     1     0     0
SMALL
No Charge or Current Charge


@<TRIPOS>ATOM
      1 N1          -0.0720     1.7770    -0.6490 ns         1 FXI      -0.132000
      2 C1          -0.7600     2.3770    -1.6940 c          1 FXI       0.645100
      3 O1          -0.3150     2.5080    -2.8310 o          1 FXI      -0.581100
      4 C2          -4.7030    -1.4580    -0.5480 ca         1 FXI      -0.007000
      5 C3          -5.5320    -1.9860     0.4610 ca         1 FXI      -0.140500
      6 C4          -6.1230    -3.2530     0.3150 ca         1 FXI      -0.075500
      7 C5          -5.8860    -4.0070    -0.8440 ca         1 FXI       0.093000
      8 C6          -5.0570    -3.4960    -1.8550 ca         1 FXI      -0.075500
      9 C7          -4.4660    -2.2280    -1.7100 ca         1 FXI      -0.140500
     10 C8          -4.5390     2.7430     1.2710 c3         1 FXI      -0.107400
     11 C9          -2.8650     3.8230    -2.2340 cx         1 FXI      -0.090900
     12 C10         -2.1520     2.8790    -1.2770 cx         1 FXI      -0.049600
     13 N2          -2.9780     1.8960    -0.5330 n          1 FXI      -0.420800
     14 C11         -3.1590     2.1420     0.9240 c3         1 FXI       0.102000
     15 C12         -3.4030     0.6830    -1.1370 c          1 FXI       0.659100
     16 O2          -3.1300     0.4410    -2.3050 o          1 FXI      -0.600100
     17 N3          -4.1380    -0.1730    -0.3270 ns         1 FXI      -0.158000
     18 Cl1         -6.6240    -5.5930    -1.0290 cl         1 FXI      -0.203000
     19 C13         -6.0740     3.6430     3.1270 c3         1 FXI      -0.089100
     20 C26         -4.6970     3.0500     2.7750 c3         1 FXI      -0.075400
     21 C14          2.1210     1.1030    -1.6380 ca         1 FXI      -0.124000
     22 C15          1.2160     1.1780    -0.5560 ca         1 FXI      -0.031000
     23 C16          1.5960     0.6230     0.6830 ca         1 FXI       0.108000
     24 C17          2.8510     0.0160     0.8470 ca         1 FXI      -0.079000
     25 C18          3.7750    -0.0340    -0.2210 cp         1 FXI      -0.102000
     26 C19          3.3780     0.4940    -1.4710 ca         1 FXI      -0.084000
     27 F1           0.7430     0.6640     1.7320 f          1 FXI      -0.182000
     28 C20          5.1910    -2.0390    -0.5770 ca         1 FXI      -0.119000
     29 C21          5.0910    -0.7200    -0.0730 cp         1 FXI       0.060000
     30 C22          6.2640    -0.1530     0.5160 ca         1 FXI      -0.239500
     31 C25          7.4680    -0.8860     0.5880 ca         1 FXI      -0.024000
     32 C23          7.5240    -2.1940     0.0830 ca         1 FXI      -0.125000
     33 C24          6.3870    -2.7710    -0.4990 ca         1 FXI      -0.058000
     34 S1           6.1970     1.5540     1.1430 sy         1 FXI       1.049500
     35 C27         -2.2190     4.3740    -0.9920 cx         1 FXI      -0.090900
     36 O4           4.9770     1.7430     1.9370 o          1 FXI      -0.526500
     37 O3           7.5100     1.8890     1.7110 o          1 FXI      -0.526500
     38 C29          6.0120     2.5670    -0.3260 c3         1 FXI      -0.333100
     39 HN1         -0.5940     1.7540     0.2170 hn         1 FXI       0.170000
     40 H3          -5.7230    -1.4110     1.3650 ha         1 FXI       0.131500
     41 H4          -6.7630    -3.6510     1.0990 ha         1 FXI       0.130000
     42 H6          -4.8720    -4.0840    -2.7500 ha         1 FXI       0.130000
     43 H7          -3.8230    -1.8680    -2.5070 ha         1 FXI       0.131500
     44 H81         -4.6950     3.6630     0.6960 hc         1 FXI       0.051700
     45 H82         -5.3260     2.0450     0.9620 hc         1 FXI       0.051700
     46 H91         -2.4000     4.0510    -3.1900 hc         1 FXI       0.090950
     47 H92         -3.9510     3.7860    -2.2620 hc         1 FXI       0.090950
     48 H111        -2.3790     2.8340     1.2700 h1         1 FXI       0.052200
     49 H112        -3.0080     1.2100     1.4830 h1         1 FXI       0.052200
     50 HN3         -4.3060     0.1880     0.6020 hn         1 FXI       0.154000
     51 H131        -6.2400     4.5860     2.5900 hc         1 FXI       0.037033
     52 H132        -6.8780     2.9460     2.8590 hc         1 FXI       0.037033
     53 H133        -6.1410     3.8450     4.2020 hc         1 FXI       0.037033
     54 H261        -4.5470     2.1290     3.3530 hc         1 FXI       0.039700
     55 H262        -3.9150     3.7540     3.0870 hc         1 FXI       0.039700
     56 H14          1.8720     1.5030    -2.6160 ha         1 FXI       0.154000
     57 H17          3.1150    -0.4120     1.8110 ha         1 FXI       0.159000
     58 H19          4.0590     0.4350    -2.3180 ha         1 FXI       0.123000
     59 H20          4.3180    -2.5000    -1.0340 ha         1 FXI       0.124000
     60 H25          8.3620    -0.4500     1.0320 ha         1 FXI       0.148000
     61 H23          8.4520    -2.7590     0.1410 ha         1 FXI       0.122000
     62 H24          6.4310    -3.7840    -0.8930 ha         1 FXI       0.120000
     63 H271        -1.3110     4.9600    -1.1170 hc         1 FXI       0.090950
     64 H272        -2.8760     4.7390    -0.2080 hc         1 FXI       0.090950
     65 H291         5.0330     2.3720    -0.7680 h1         1 FXI       0.104700
     66 H292         6.0880     3.6160    -0.0220 h1         1 FXI       0.104700
     67 H293         6.8150     2.3070    -1.0230 h1         1 FXI       0.104700
@<TRIPOS>BOND
     1     1     2 1   
     2     1    22 1   
     3     1    39 1   
     4     2     3 2   
     5     2    12 1   
     6     4     5 ar  
     7     4     9 ar  
     8     4    17 1   
     9     5     6 ar  
    10     5    40 1   
    11     6     7 ar  
    12     6    41 1   
    13     7     8 ar  
    14     7    18 1   
    15     8     9 ar  
    16     8    42 1   
    17     9    43 1   
    18    10    14 1   
    19    10    20 1   
    20    10    44 1   
    21    10    45 1   
    22    11    12 1   
    23    11    35 1   
    24    11    46 1   
    25    11    47 1   
    26    12    13 1   
    27    12    35 1   
    28    13    14 1   
    29    13    15 1   
    30    14    48 1   
    31    14    49 1   
    32    15    16 2   
    33    15    17 1   
    34    17    50 1   
    35    19    20 1   
    36    19    51 1   
    37    19    52 1   
    38    19    53 1   
    39    20    54 1   
    40    20    55 1   
    41    21    22 ar  
    42    21    26 ar  
    43    21    56 1   
    44    22    23 ar  
    45    23    24 ar  
    46    23    27 1   
    47    24    25 ar  
    48    24    57 1   
    49    25    26 ar  
    50    25    29 1   
    51    26    58 1   
    52    28    29 ar  
    53    28    33 ar  
    54    28    59 1   
    55    29    30 ar  
    56    30    31 ar  
    57    30    34 1   
    58    31    32 ar  
    59    31    60 1   
    60    32    33 ar  
    61    32    61 1   
    62    33    62 1   
    63    34    36 2   
    64    34    37 2   
    65    34    38 1   
    66    35    63 1   
    67    35    64 1   
    68    38    65 1   
    69    38    66 1   
    70    38    67 1   
@<TRIPOS>SUBSTRUCTURE
     1 FXI         1 TEMP              0 ****  ****    0 ROOT
