@<TRIPOS>MOLECULE
FXI
   67    70     1     0     0
SMALL
bcc


@<TRIPOS>ATOM
      1 N1          -0.1640     1.5190    -0.9350 ns         1 FXI      -0.458100
      2 C1          -0.7250     2.3750    -1.8260 c          1 FXI       0.712100
      3 O1          -0.1210     2.8780    -2.7550 o          1 FXI      -0.581100
      4 C2          -4.4300    -1.3310    -0.0710 ca         1 FXI       0.085600
      5 C3          -4.6700    -2.0040     1.1290 ca         1 FXI      -0.158500
      6 C4          -5.1930    -3.2840     1.1420 ca         1 FXI      -0.093500
      7 C5          -5.4800    -3.9120    -0.0600 ca         1 FXI       0.001400
      8 C6          -5.2530    -3.2610    -1.2600 ca         1 FXI      -0.093500
      9 C7          -4.7360    -1.9740    -1.2720 ca         1 FXI      -0.158500
     10 C8          -4.4210     3.0110     1.0720 c3         1 FXI      -0.107400
     11 C9          -2.9570     3.1920    -2.7450 cx         1 FXI      -0.090900
     12 C10         -2.1700     2.6970    -1.5620 cx         1 FXI      -0.049600
     13 N2          -2.8340     1.9290    -0.5550 n          1 FXI      -0.487800
     14 C11         -3.0150     2.4950     0.7800 c3         1 FXI       0.102000
     15 C12         -3.2840     0.6860    -0.9400 c          1 FXI       0.793100
     16 O2          -3.0830     0.2570    -2.0630 o          1 FXI      -0.600100
     17 N3          -3.9370    -0.0280     0.0270 ns         1 FXI      -0.484100
     18 CL1         -6.1280    -5.5210    -0.0580 cl         1 FXI      -0.111400
     19 C13         -5.9180     4.0920     2.8060 c3         1 FXI      -0.089100
     20 C26         -4.5230     3.5760     2.4830 c3         1 FXI      -0.075400
     21 C14          2.2030     1.4940    -1.6780 ca         1 FXI      -0.142000
     22 C15          1.1400     1.0320    -0.9040 ca         1 FXI       0.061600
     23 C16          1.4140    -0.0030    -0.0100 ca         1 FXI       0.072900
     24 C17          2.6600    -0.5580     0.1500 ca         1 FXI      -0.097000
     25 C18          3.7160    -0.0810    -0.6210 cp         1 FXI      -0.102000
     26 C19          3.4640     0.9330    -1.5390 ca         1 FXI      -0.102000
     27 F1           0.3930    -0.4730     0.7310 f          1 FXI      -0.146900
     28 C20          5.5280    -1.4080    -1.6240 ca         1 FXI      -0.137000
     29 C21          5.0750    -0.6670    -0.5350 cp         1 FXI       0.060000
     30 C22          5.9540    -0.4930     0.5410 ca         1 FXI      -0.239500
     31 C25          7.2280    -1.0480     0.5280 ca         1 FXI      -0.042000
     32 C23          7.6450    -1.7970    -0.5600 ca         1 FXI      -0.143000
     33 C24          6.7950    -1.9740    -1.6390 ca         1 FXI      -0.076000
     34 S1           5.5110     0.4260     2.0100 sy         1 FXI       1.080300
     35 C27         -2.5220     4.1600    -1.7120 cx         1 FXI      -0.090900
     36 O4           4.3310    -0.1840     2.6180 o          1 FXI      -0.597300
     37 O3           6.7140     0.5390     2.8340 o          1 FXI      -0.597300
     38 C29          5.0990     2.0640     1.4550 c3         1 FXI      -0.222300
     39 HN1         -0.7720     1.1670    -0.2140 hn         1 FXI       0.336500
     40 H3          -4.4430    -1.5240     2.0740 ha         1 FXI       0.149500
     41 H4          -5.3700    -3.7830     2.0850 ha         1 FXI       0.148000
     42 H6          -5.4840    -3.7460    -2.1990 ha         1 FXI       0.148000
     43 H7          -4.5830    -1.4880    -2.2200 ha         1 FXI       0.149500
     44 H81         -4.6830     3.7840     0.3440 hc         1 FXI       0.051700
     45 H82         -5.1600     2.2160     0.9440 hc         1 FXI       0.051700
     46 H91         -2.4670     3.1940    -3.7090 hc         1 FXI       0.090950
     47 H92         -4.0020     2.9140    -2.7650 hc         1 FXI       0.090950
     48 H111        -2.3010     3.3120     0.8770 h1         1 FXI       0.052200
     49 H112        -2.7110     1.7690     1.5410 h1         1 FXI       0.052200
     50 HN3         -3.9670     0.3490     0.9600 hn         1 FXI       0.320500
     51 H131        -6.2110     4.8950     2.1270 hc         1 FXI       0.037033
     52 H132        -6.6610     3.2990     2.7170 hc         1 FXI       0.037033
     53 H133        -5.9700     4.4830     3.8220 hc         1 FXI       0.037033
     54 H261        -4.2440     2.8010     3.2040 hc         1 FXI       0.039700
     55 H262        -3.7940     4.3830     2.6060 hc         1 FXI       0.039700
     56 H14          2.0600     2.2910    -2.3880 ha         1 FXI       0.172000
     57 H17          2.7940    -1.3650     0.8570 ha         1 FXI       0.177000
     58 H19          4.2710     1.3160    -2.1490 ha         1 FXI       0.141000
     59 H20          4.8650    -1.5490    -2.4670 ha         1 FXI       0.142000
     60 H25          7.9010    -0.8960     1.3590 ha         1 FXI       0.166000
     61 H23          8.6350    -2.2320    -0.5630 ha         1 FXI       0.140000
     62 H24          7.1130    -2.5520    -2.4970 ha         1 FXI       0.138000
     63 H271        -1.7070     4.8360    -1.9340 hc         1 FXI       0.090950
     64 H272        -3.2650     4.5680    -1.0400 hc         1 FXI       0.090950
     65 H291         4.2260     2.0440     0.8090 h1         1 FXI       0.104700
     66 H292         4.8810     2.6440     2.3520 h1         1 FXI       0.104700
     67 H293         5.9530     2.4900     0.9340 h1         1 FXI       0.104700
@<TRIPOS>BOND
     1     1     2 1   
     2     1    22 1   
     3     1    39 1   
     4     2     3 2   
     5     2    12 1   
     6     4     5 ar  
     7     4     9 ar  
     8     4    17 1   
     9     5     6 ar  
    10     5    40 1   
    11     6     7 ar  
    12     6    41 1   
    13     7     8 ar  
    14     7    18 1   
    15     8     9 ar  
    16     8    42 1   
    17     9    43 1   
    18    10    14 1   
    19    10    20 1   
    20    10    44 1   
    21    10    45 1   
    22    11    12 1   
    23    11    35 1   
    24    11    46 1   
    25    11    47 1   
    26    12    13 1   
    27    12    35 1   
    28    13    14 1   
    29    13    15 1   
    30    14    48 1   
    31    14    49 1   
    32    15    16 2   
    33    15    17 1   
    34    17    50 1   
    35    19    20 1   
    36    19    51 1   
    37    19    52 1   
    38    19    53 1   
    39    20    54 1   
    40    20    55 1   
    41    21    22 ar  
    42    21    26 ar  
    43    21    56 1   
    44    22    23 ar  
    45    23    24 ar  
    46    23    27 1   
    47    24    25 ar  
    48    24    57 1   
    49    25    26 ar  
    50    25    29 1   
    51    26    58 1   
    52    28    29 ar  
    53    28    33 ar  
    54    28    59 1   
    55    29    30 ar  
    56    30    31 ar  
    57    30    34 1   
    58    31    32 ar  
    59    31    60 1   
    60    32    33 ar  
    61    32    61 1   
    62    33    62 1   
    63    34    36 2   
    64    34    37 2   
    65    34    38 1   
    66    35    63 1   
    67    35    64 1   
    68    38    65 1   
    69    38    66 1   
    70    38    67 1   
@<TRIPOS>SUBSTRUCTURE
     1 FXI         1 TEMP              0 ****  ****    0 ROOT
