@<TRIPOS>MOLECULE
FXJ
   48    50     1     0     0
SMALL
bcc


@<TRIPOS>ATOM
      1 C10          2.4670    -1.1980     0.5410 ca         1 FXJ      -0.037900
      2 C15         -1.6330    -2.3580    -0.5940 ca         1 FXJ      -0.191600
      3 C17         -3.7550    -2.0930     0.5160 ca         1 FXJ      -0.210000
      4 C20         -6.0920    -4.6660    -0.5410 c3         1 FXJ       0.123700
      5 C21         -3.4410    -3.8930    -1.0650 ca         1 FXJ      -0.210000
      6 C22         -2.1450    -3.4600    -1.2750 ca         1 FXJ      -0.019500
      7 C24         -1.9850     3.4930     0.1100 ca         1 FXJ      -0.090600
      8 O01         -1.6070     2.9240    -2.1670 o          1 FXJ      -0.573100
      9 C02         -1.2700     2.7810    -1.0040 c          1 FXJ       0.686700
     10 N03         -0.2130     2.0610    -0.6140 ns         1 FXJ      -0.559900
     11 C04          0.6310     1.3680    -1.5680 c3         1 FXJ       0.159300
     12 C05          1.7260     0.6260    -0.8530 ca         1 FXJ      -0.116300
     13 C06          3.0290     1.1040    -0.8890 ca         1 FXJ      -0.069000
     14 C07          4.0360     0.4240    -0.2220 ca         1 FXJ      -0.031900
     15 BR1          5.7980     1.0820    -0.2870 br         1 FXJ      -0.075100
     16 C09          3.7710    -0.7280     0.5020 ca         1 FXJ      -0.057000
     17 BR2          2.0680    -2.7430     1.5270 br         1 FXJ      -0.056100
     18 C12          1.4510    -0.5280    -0.1280 ca         1 FXJ       0.158100
     19 O13          0.1590    -0.9630    -0.0270 os         1 FXJ      -0.357200
     20 C14         -0.2470    -1.9600    -0.8560 c          1 FXJ       0.677700
     21 C16         -2.4590    -1.6770     0.3060 ca         1 FXJ      -0.019500
     22 C18         -4.2580    -3.2090    -0.1630 ca         1 FXJ       0.183100
     23 O19         -5.5220    -3.5430     0.1100 os         1 FXJ      -0.311900
     24 O23          0.4830    -2.4290    -1.6850 o          1 FXJ      -0.507000
     25 C25         -3.3420     3.3270     0.3700 ca         1 FXJ      -0.134200
     26 N26         -4.0890     2.2840    -0.3160 no         1 FXJ       0.314200
     27 O27         -5.2690     2.4650    -0.5030 o          1 FXJ      -0.196500
     28 O28         -3.4900     1.2880    -0.6420 o          1 FXJ      -0.196500
     29 C29         -4.0110     4.0930     1.3090 ca         1 FXJ      -0.074000
     30 C30         -3.3060     5.0490     2.0230 ca         1 FXJ      -0.121000
     31 C31         -1.9540     5.2340     1.7830 ca         1 FXJ      -0.093000
     32 C32         -1.3010     4.4630     0.8310 ca         1 FXJ      -0.117000
     33 H1          -4.3930    -1.5600     1.2080 ha         1 FXJ       0.146000
     34 H2          -7.1140    -4.7430    -0.1800 h1         1 FXJ       0.045367
     35 H3          -6.1080    -4.5400    -1.6260 h1         1 FXJ       0.045367
     36 H4          -5.5590    -5.5870    -0.2970 h1         1 FXJ       0.045367
     37 H5          -3.7960    -4.7590    -1.6070 ha         1 FXJ       0.146000
     38 H6          -1.5210    -3.9980    -1.9760 ha         1 FXJ       0.149500
     39 H7          -0.0080     1.9800     0.3700 hn         1 FXJ       0.326500
     40 H8           0.0310     0.6860    -2.1750 h1         1 FXJ       0.068200
     41 H9           1.0830     2.0840    -2.2560 h1         1 FXJ       0.068200
     42 H10          3.2440     2.0060    -1.4460 ha         1 FXJ       0.156000
     43 H11          4.5580    -1.2510     1.0270 ha         1 FXJ       0.167000
     44 H12         -2.1010    -0.8080     0.8390 ha         1 FXJ       0.149500
     45 H13         -5.0620     3.9340     1.5040 ha         1 FXJ       0.169000
     46 H14         -3.8180     5.6440     2.7670 ha         1 FXJ       0.149000
     47 H15         -1.4010     5.9830     2.3330 ha         1 FXJ       0.146000
     48 H16         -0.2500     4.6310     0.6340 ha         1 FXJ       0.149000
@<TRIPOS>BOND
     1     1    16 ar  
     2     1    17 1   
     3     1    18 ar  
     4     2     6 ar  
     5     2    20 1   
     6     2    21 ar  
     7     3    21 ar  
     8     3    22 ar  
     9     3    33 1   
    10     4    23 1   
    11     4    34 1   
    12     4    35 1   
    13     4    36 1   
    14     5     6 ar  
    15     5    22 ar  
    16     5    37 1   
    17     6    38 1   
    18     7     9 1   
    19     7    25 ar  
    20     7    32 ar  
    21     8     9 2   
    22     9    10 1   
    23    10    11 1   
    24    10    39 1   
    25    11    12 1   
    26    11    40 1   
    27    11    41 1   
    28    12    13 ar  
    29    12    18 ar  
    30    13    14 ar  
    31    13    42 1   
    32    14    15 1   
    33    14    16 ar  
    34    16    43 1   
    35    18    19 1   
    36    19    20 1   
    37    20    24 2   
    38    21    44 1   
    39    22    23 1   
    40    25    26 1   
    41    25    29 ar  
    42    26    27 1   
    43    26    28 1   
    44    29    30 ar  
    45    29    45 1   
    46    30    31 ar  
    47    30    46 1   
    48    31    32 ar  
    49    31    47 1   
    50    32    48 1   
@<TRIPOS>SUBSTRUCTURE
     1 FXJ         1 TEMP              0 ****  ****    0 ROOT
