@<TRIPOS>MOLECULE
FXJ
   48    50     1     0     0
SMALL
No Charge or Current Charge


@<TRIPOS>ATOM
      1 C10          3.1630    -0.8310     0.5540 ca         1 FXJ      -0.037900
      2 C15         -1.4140    -1.5600    -0.1130 ca         1 FXJ      -0.191600
      3 C17         -3.1770    -1.0870     1.5110 ca         1 FXJ      -0.192000
      4 C20         -6.4870    -2.3300     0.3390 c3         1 FXJ       0.146900
      5 C21         -3.7110    -2.2920    -0.5270 ca         1 FXJ      -0.192000
      6 C22         -2.3650    -2.2110    -0.9260 ca         1 FXJ      -0.001500
      7 C24         -2.3950     2.1190    -0.2750 ca         1 FXJ      -0.090600
      8 O01         -1.5360     2.2570    -2.5320 o          1 FXJ      -0.573100
      9 C02         -1.3180     2.0500    -1.3470 c          1 FXJ       0.619700
     10 N03         -0.0460     1.7750    -0.9010 ns         1 FXJ      -0.492900
     11 C04          1.0800     1.4560    -1.7780 c3         1 FXJ       0.159300
     12 C05          2.2450     0.7910    -1.0410 ca         1 FXJ      -0.116300
     13 C06          3.5590     1.2140    -1.3310 ca         1 FXJ      -0.051000
     14 C07          4.6590     0.6230    -0.6870 ca         1 FXJ      -0.031900
     15 Br1          6.4320     1.2150    -1.0960 br         1 FXJ      -0.075100
     16 C09          4.4650    -0.3980     0.2560 ca         1 FXJ      -0.039000
     17 Br2          2.9140    -2.2230     1.8500 br         1 FXJ      -0.056100
     18 C12          2.0560    -0.2500    -0.0950 ca         1 FXJ       0.158100
     19 O13          0.7940    -0.6750     0.2420 os         1 FXJ      -0.357200
     20 C14          0.0160    -1.4400    -0.5810 c          1 FXJ       0.628700
     21 C16         -1.8320    -1.0040     1.1170 ca         1 FXJ      -0.001500
     22 C18         -4.1230    -1.7200     0.6940 ca         1 FXJ       0.183100
     23 O19         -5.4320    -1.7490     1.1270 os         1 FXJ      -0.335100
     24 O23          0.4330    -1.9630    -1.6050 o          1 FXJ      -0.458000
     25 C25         -3.7700     1.8710    -0.5670 ca         1 FXJ      -0.134200
     26 N26         -4.2310     1.4530    -1.9220 no         1 FXJ       0.694200
     27 O27         -5.2160     2.0390    -2.3920 o          1 FXJ      -0.386500
     28 O28         -3.7890     0.3890    -2.3730 o          1 FXJ      -0.386500
     29 C29         -4.7400     1.9720     0.4560 ca         1 FXJ      -0.056000
     30 C30         -4.3640     2.3060     1.7650 ca         1 FXJ      -0.103000
     31 C31         -3.0160     2.5450     2.0650 ca         1 FXJ      -0.075000
     32 C32         -2.0420     2.4540     1.0570 ca         1 FXJ      -0.099000
     33 H1          -3.4910    -0.6470     2.4530 ha         1 FXJ       0.128000
     34 H2          -7.4470    -2.2370     0.8620 h1         1 FXJ       0.045367
     35 H3          -6.5760    -1.8200    -0.6280 h1         1 FXJ       0.045367
     36 H4          -6.2990    -3.3960     0.1610 h1         1 FXJ       0.045367
     37 H5          -4.4170    -2.7920    -1.1830 ha         1 FXJ       0.128000
     38 H6          -2.0690    -2.6440    -1.8800 ha         1 FXJ       0.131500
     39 H7           0.0660     1.6050     0.0900 hn         1 FXJ       0.326500
     40 H8           0.7330     0.7830    -2.5730 h1         1 FXJ       0.068200
     41 H9           1.4190     2.3860    -2.2540 h1         1 FXJ       0.068200
     42 H10          3.7310     2.0040    -2.0600 ha         1 FXJ       0.138000
     43 H11          5.3190    -0.8500     0.7550 ha         1 FXJ       0.149000
     44 H12         -1.1270    -0.4980     1.7730 ha         1 FXJ       0.131500
     45 H13         -5.7880     1.7730     0.2390 ha         1 FXJ       0.151000
     46 H14         -5.1170     2.3760     2.5470 ha         1 FXJ       0.131000
     47 H15         -2.7250     2.8080     3.0800 ha         1 FXJ       0.128000
     48 H16         -1.0110     2.6740     1.3250 ha         1 FXJ       0.131000
@<TRIPOS>BOND
     1     1    16 ar  
     2     1    17 1   
     3     1    18 ar  
     4     2     6 ar  
     5     2    20 1   
     6     2    21 ar  
     7     3    21 ar  
     8     3    22 ar  
     9     3    33 1   
    10     4    23 1   
    11     4    34 1   
    12     4    35 1   
    13     4    36 1   
    14     5     6 ar  
    15     5    22 ar  
    16     5    37 1   
    17     6    38 1   
    18     7     9 1   
    19     7    25 ar  
    20     7    32 ar  
    21     8     9 2   
    22     9    10 1   
    23    10    11 1   
    24    10    39 1   
    25    11    12 1   
    26    11    40 1   
    27    11    41 1   
    28    12    13 ar  
    29    12    18 ar  
    30    13    14 ar  
    31    13    42 1   
    32    14    15 1   
    33    14    16 ar  
    34    16    43 1   
    35    18    19 1   
    36    19    20 1   
    37    20    24 2   
    38    21    44 1   
    39    22    23 1   
    40    25    26 1   
    41    25    29 ar  
    42    26    27 1   
    43    26    28 1   
    44    29    30 ar  
    45    29    45 1   
    46    30    31 ar  
    47    30    46 1   
    48    31    32 ar  
    49    31    47 1   
    50    32    48 1   
@<TRIPOS>SUBSTRUCTURE
     1 FXJ         1 TEMP              0 ****  ****    0 ROOT
