@<TRIPOS>MOLECULE
FXK
   20    21     1     0     0
SMALL
abcg2


@<TRIPOS>ATOM
      1 C10        -80.6900    -2.8090    -7.1230 ca         1 FXK      -0.144000
      2 C03        -78.3060    -2.5880    -7.2170 ca         1 FXK      -0.079800
      3 C04        -76.9710    -2.0800    -7.3390 cc         1 FXK      -0.148400
      4 C05        -78.2000    -3.9800    -7.0030 ca         1 FXK      -0.051200
      5 C06        -76.1400    -3.1540    -7.1900 cd         1 FXK      -0.146100
      6 C07        -79.5770    -2.0040    -7.2710 ca         1 FXK      -0.052000
      7 C08        -76.5730    -0.6730    -7.6090 c3         1 FXK       0.239800
      8 C09        -79.3200    -4.7960    -6.8510 ca         1 FXK      -0.130000
      9 C11        -80.5610    -4.1930    -6.9150 ca         1 FXK      -0.092000
     10 N02        -76.8700    -4.2900    -6.9910 na         1 FXK      -0.223700
     11 O01        -77.0200     0.1530    -6.5510 oh         1 FXK      -0.654000
     12 H101       -81.6780    -2.3700    -7.1650 ha         1 FXK       0.109000
     13 H061       -75.0610    -3.1920    -7.2180 h4         1 FXK       0.210000
     14 H071       -79.6870    -0.9380    -7.4220 ha         1 FXK       0.118000
     15 H081       -75.4830    -0.6240    -7.7290 h1         1 FXK       0.019200
     16 H082       -77.0090    -0.3470    -8.5620 h1         1 FXK       0.019200
     17 H091       -79.2220    -5.8620    -6.6900 ha         1 FXK       0.111000
     18 H111       -81.4510    -4.7980    -6.8010 ha         1 FXK       0.108000
     19 H021       -76.4840    -5.2110    -6.8660 hn         1 FXK       0.350000
     20 H011       -76.8780     1.0690    -6.8110 ho         1 FXK       0.436000
@<TRIPOS>BOND
     1     1     6 ar  
     2     1     9 ar  
     3     1    12 1   
     4     2     3 1   
     5     2     4 ar  
     6     2     6 ar  
     7     3     5 2   
     8     3     7 1   
     9     4     8 ar  
    10     4    10 1   
    11     5    10 1   
    12     5    13 1   
    13     6    14 1   
    14     7    11 1   
    15     7    15 1   
    16     7    16 1   
    17     8     9 ar  
    18     8    17 1   
    19     9    18 1   
    20    10    19 1   
    21    11    20 1   
@<TRIPOS>SUBSTRUCTURE
     1 FXK         1 TEMP              0 ****  ****    0 ROOT
