@<TRIPOS>MOLECULE
FXK
   20    21     1     0     0
SMALL
No Charge or Current Charge


@<TRIPOS>ATOM
      1 C10        -80.7380    -2.8540    -7.2200 ca         1 FXK      -0.144000
      2 C03        -78.3370    -2.6320    -7.2420 ca         1 FXK      -0.079800
      3 C04        -77.0220    -2.0600    -7.3400 cc         1 FXK      -0.148400
      4 C05        -78.1940    -3.9670    -6.9850 ca         1 FXK      -0.051200
      5 C06        -76.1340    -3.1130    -7.1280 cd         1 FXK      -0.146100
      6 C07        -79.5990    -2.0330    -7.3670 ca         1 FXK      -0.052000
      7 C08        -76.6820    -0.6210    -7.6280 c3         1 FXK       0.239800
      8 C09        -79.3070    -4.8060    -6.8340 ca         1 FXK      -0.130000
      9 C11        -80.5920    -4.2360    -6.9550 ca         1 FXK      -0.092000
     10 N02        -76.8570    -4.3100    -6.9050 na         1 FXK      -0.223700
     11 O01        -76.5680     0.1190    -6.4090 oh         1 FXK      -0.654000
     12 H101       -81.7310    -2.4220    -7.3110 ha         1 FXK       0.109000
     13 H061       -75.0470    -3.0930    -7.1210 h4         1 FXK       0.210000
     14 H071       -79.7000    -0.9690    -7.5680 ha         1 FXK       0.118000
     15 H081       -75.7370    -0.5820    -8.1850 h1         1 FXK       0.019200
     16 H082       -77.4620    -0.1860    -8.2670 h1         1 FXK       0.019200
     17 H091       -79.1850    -5.8680    -6.6290 ha         1 FXK       0.111000
     18 H111       -81.4750    -4.8630    -6.8430 ha         1 FXK       0.108000
     19 H021       -76.4730    -5.2330    -6.7230 hn         1 FXK       0.350000
     20 H011       -76.3420     1.0400    -6.6640 ho         1 FXK       0.436000
@<TRIPOS>BOND
     1     1     6 ar  
     2     1     9 ar  
     3     1    12 1   
     4     2     3 1   
     5     2     4 ar  
     6     2     6 ar  
     7     3     5 2   
     8     3     7 1   
     9     4     8 ar  
    10     4    10 1   
    11     5    10 1   
    12     5    13 1   
    13     6    14 1   
    14     7    11 1   
    15     7    15 1   
    16     7    16 1   
    17     8     9 ar  
    18     8    17 1   
    19     9    18 1   
    20    10    19 1   
    21    11    20 1   
@<TRIPOS>SUBSTRUCTURE
     1 FXK         1 TEMP              0 ****  ****    0 ROOT
