@<TRIPOS>MOLECULE
FXL
   22    22     1     0     0
SMALL
No Charge or Current Charge


@<TRIPOS>ATOM
      1 CD1         -8.8860   132.8110    10.2760 ca         1 FXL      -0.085000
      2 CA         -10.5460   135.8050    10.3860 c3         1 FXL       0.026500
      3 CB         -10.4490   134.6190     9.3860 c3         1 FXL      -0.004100
      4 CG          -9.1030   133.8960     9.4030 ca         1 FXL      -0.017300
      5 CD2         -8.0700   134.2940     8.5290 ca         1 FXL      -0.084000
      6 CE2         -6.8350   133.6210     8.5330 ca         1 FXL      -0.115000
      7 CZ          -6.6260   132.5430     9.4100 ca         1 FXL      -0.129000
      8 CE1         -7.6520   132.1400    10.2790 ca         1 FXL       0.114000
      9 C           -9.5150   136.9570    10.0030 c          1 FXL       0.719000
     10 N          -10.5600   135.3110    11.8160 n8         1 FXL      -1.005200
     11 O           -9.6970   137.5650     8.9560 o          1 FXL      -0.728000
     12 OXT         -8.6300   137.2570    10.7960 o          1 FXL      -0.728000
     13 Cl1         -7.3900   130.7880    11.3740 cl         1 FXL      -0.260000
     14 HD1         -9.6730   132.4900    10.9530 ha         1 FXL       0.125000
     15 HA         -11.5380   136.2530    10.2400 h1         1 FXL       0.000700
     16 HB2        -10.6540   134.9940     8.3750 hc         1 FXL       0.028700
     17 HB3        -11.2550   133.9070     9.5980 hc         1 FXL       0.028700
     18 HD2         -8.2250   135.1260     7.8460 ha         1 FXL       0.140000
     19 HE2         -6.0430   133.9350     7.8570 ha         1 FXL       0.100000
     20 HZ          -5.6720   132.0210     9.4150 ha         1 FXL       0.106000
     21 H2         -10.6520   136.1170    12.4470 hn         1 FXL       0.384500
     22 H9         -11.4140   134.7660    11.9810 hn         1 FXL       0.384500
@<TRIPOS>BOND
     1     1     4 ar  
     2     1     8 ar  
     3     1    14 1   
     4     2     3 1   
     5     2     9 1   
     6     2    10 1   
     7     2    15 1   
     8     3     4 1   
     9     3    16 1   
    10     3    17 1   
    11     4     5 ar  
    12     5     6 ar  
    13     5    18 1   
    14     6     7 ar  
    15     6    19 1   
    16     7     8 ar  
    17     7    20 1   
    18     8    13 1   
    19     9    11 1   
    20     9    12 1   
    21    10    21 1   
    22    10    22 1   
@<TRIPOS>SUBSTRUCTURE
     1 FXL         1 TEMP              0 ****  ****    0 ROOT
