@<TRIPOS>MOLECULE
FXL
   22    22     1     0     0
SMALL
abcg2


@<TRIPOS>ATOM
      1 CD1         -8.9030   132.8710    10.2700 ca         1 FXL      -0.085000
      2 CA         -10.5840   135.7600    10.3630 c3         1 FXL       0.026500
      3 CB         -10.4700   134.6100     9.3470 c3         1 FXL      -0.004100
      4 CG          -9.1430   133.9080     9.3690 ca         1 FXL      -0.017300
      5 CD2         -8.1190   134.2830     8.5020 ca         1 FXL      -0.084000
      6 CE2         -6.8890   133.6430     8.5310 ca         1 FXL      -0.115000
      7 CZ          -6.6470   132.6130     9.4300 ca         1 FXL      -0.129000
      8 CE1         -7.6680   132.2440    10.2910 ca         1 FXL       0.114000
      9 C           -9.5070   136.8460    10.1180 c          1 FXL       0.719000
     10 N          -10.5340   135.2400    11.7170 n8         1 FXL      -1.005200
     11 O           -9.4300   137.2770     8.9500 o          1 FXL      -0.728000
     12 OXT         -8.8360   137.2210    11.0990 o          1 FXL      -0.728000
     13 CL1         -7.3950   130.9550    11.4270 cl         1 FXL      -0.260000
     14 HD1         -9.6840   132.5570    10.9490 ha         1 FXL       0.125000
     15 HA         -11.5490   136.2480    10.1470 h1         1 FXL       0.000700
     16 HB2        -10.6600   135.0040     8.3480 hc         1 FXL       0.028700
     17 HB3        -11.2670   133.8890     9.5520 hc         1 FXL       0.028700
     18 HD2         -8.2880   135.0900     7.8010 ha         1 FXL       0.140000
     19 HE2         -6.1060   133.9420     7.8460 ha         1 FXL       0.100000
     20 HZ          -5.6900   132.1100     9.4560 ha         1 FXL       0.106000
     21 H2         -10.2650   135.9860    12.3440 hn         1 FXL       0.384500
     22 H9         -11.4500   134.9190    12.0010 hn         1 FXL       0.384500
@<TRIPOS>BOND
     1     1     4 ar  
     2     1     8 ar  
     3     1    14 1   
     4     2     3 1   
     5     2     9 1   
     6     2    10 1   
     7     2    15 1   
     8     3     4 1   
     9     3    16 1   
    10     3    17 1   
    11     4     5 ar  
    12     5     6 ar  
    13     5    18 1   
    14     6     7 ar  
    15     6    19 1   
    16     7     8 ar  
    17     7    20 1   
    18     8    13 1   
    19     9    11 1   
    20     9    12 1   
    21    10    21 1   
    22    10    22 1   
@<TRIPOS>SUBSTRUCTURE
     1 FXL         1 TEMP              0 ****  ****    0 ROOT
