@<TRIPOS>MOLECULE
FXM
   69    70     1     0     0
SMALL
abcg2


@<TRIPOS>ATOM
      1 C1          -2.1190     2.0460    -0.6020 c2         1 FXM      -0.176400
      2 C2          -2.0300     0.7470    -0.9500 ce         1 FXM       0.110800
      3 N3          -0.8710     0.0050    -0.9660 nu         1 FXM      -0.813200
      4 C4           0.3380     0.4570    -0.3470 c6         1 FXM       0.352500
      5 S5           0.6320     2.2020    -0.7670 ss         1 FXM      -0.413000
      6 C6          -0.9320     2.7890    -0.0600 c6         1 FXM       0.110800
      7 C7           1.5180    -0.3750    -0.8570 c3         1 FXM      -0.008300
      8 C8          -3.1830    -0.0630    -1.4580 c          1 FXM       0.591300
      9 O9          -4.3050     0.1740    -0.7840 os         1 FXM      -0.439100
     10 O10         -3.0760    -0.8830    -2.3300 o          1 FXM      -0.452000
     11 C11          1.7430    -0.1360    -2.3410 c          1 FXM       0.571900
     12 O12          2.8130     0.1260    -2.8210 o          1 FXM      -0.495100
     13 N14          2.6840    -0.1220    -0.0630 ns         1 FXM      -0.500900
     14 O15          3.6520    -2.1230    -0.4490 o          1 FXM      -0.585100
     15 C16         -3.3500     2.8780    -0.7770 c3         1 FXM       0.247800
     16 O17         -3.9250     3.0660     0.5210 os         1 FXM      -0.458100
     17 C18         -4.9940     3.8660     0.6000 c          1 FXM       0.638100
     18 N19         -5.4250     3.9750     1.8680 nt         1 FXM      -0.593000
     19 O20         -5.4870     4.4300    -0.3560 o          1 FXM      -0.549000
     20 C21          5.8430     0.2560     0.3110 cc         1 FXM       0.376800
     21 N22          6.9840     0.5650     1.0100 nc         1 FXM      -0.730000
     22 C23          7.7830     1.3000     0.3060 cd         1 FXM       0.693300
     23 S24          7.1940     1.6820    -1.2930 ss         1 FXM      -0.094400
     24 C25          5.7710     0.7670    -0.9470 cd         1 FXM      -0.258000
     25 C26         -5.4690    -0.5360    -1.1630 c3         1 FXM       0.382600
     26 C27         -5.5480    -2.1640     0.5450 c          1 FXM       0.597100
     27 O28         -5.3800    -1.8740    -0.7580 os         1 FXM      -0.457100
     28 O29         -5.8350    -1.3310     1.3600 o          1 FXM      -0.463000
     29 C30         -5.3090    -3.6370     0.8180 c3         1 FXM      -0.097000
     30 C31         -5.5770    -3.9300     2.2920 c3         1 FXM      -0.083767
     31 C32         -6.2400    -4.4870    -0.0560 c3         1 FXM      -0.083767
     32 C33         -3.8460    -3.9620     0.4800 c3         1 FXM      -0.083767
     33 C34          4.8140    -0.5700     0.9410 ce         1 FXM      -0.234000
     34 C35          4.8770    -0.9660     2.2160 c2         1 FXM      -0.137200
     35 C36          3.8780    -1.8240     2.9200 c3         1 FXM      -0.052200
     36 C37          4.4330    -3.2230     3.1930 c3         1 FXM      -0.085100
     37 N38          8.9590     1.7980     0.7500 nv         1 FXM      -1.041900
     38 HN3         -0.9810    -0.9980    -0.9940 hn         1 FXM       0.495000
     39 H4           0.2950     0.3740     0.7450 h2         1 FXM       0.069700
     40 H6          -0.9950     3.8490    -0.3070 h1         1 FXM       0.086200
     41 H6A         -0.8710     2.7180     1.0280 h1         1 FXM       0.086200
     42 H7           1.2380    -1.4320    -0.7530 h1         1 FXM       0.093700
     43 H11          0.8410    -0.2480    -2.9630 h4         1 FXM       0.018200
     44 HN14         2.7870     0.7840     0.3720 hn         1 FXM       0.336500
     45 H16         -3.0610     3.8470    -1.1940 h1         1 FXM       0.057700
     46 H16A        -4.0760     2.4430    -1.4590 h1         1 FXM       0.057700
     47 HN19        -5.0630     3.3850     2.5980 hn         1 FXM       0.327000
     48 HN1A        -6.2900     4.4540     2.0460 hn         1 FXM       0.327000
     49 H25          4.9830     0.6690    -1.6770 h4         1 FXM       0.185000
     50 H26         -6.2970    -0.0130    -0.6890 h2         1 FXM       0.090700
     51 H26A        -5.5950    -0.5480    -2.2430 h2         1 FXM       0.090700
     52 H31         -6.6120    -3.7200     2.5650 hc         1 FXM       0.045700
     53 H31A        -5.3930    -4.9870     2.4880 hc         1 FXM       0.045700
     54 H31B        -4.9280    -3.3530     2.9500 hc         1 FXM       0.045700
     55 H32         -6.0510    -4.3480    -1.1190 hc         1 FXM       0.045700
     56 H32A        -6.0790    -5.5420     0.1720 hc         1 FXM       0.045700
     57 H32B        -7.2900    -4.2630     0.1400 hc         1 FXM       0.045700
     58 H33         -3.1510    -3.3510     1.0590 hc         1 FXM       0.045700
     59 H33A        -3.6480    -5.0070     0.7200 hc         1 FXM       0.045700
     60 H33B        -3.6300    -3.8160    -0.5780 hc         1 FXM       0.045700
     61 H35          5.7400    -0.6590     2.7980 ha         1 FXM       0.200000
     62 H36          3.6200    -1.3500     3.8710 hc         1 FXM       0.045200
     63 H36A         2.9470    -1.9050     2.3550 hc         1 FXM       0.045200
     64 H37          3.7120    -3.8220     3.7500 hc         1 FXM       0.039367
     65 H37A         4.6530    -3.7400     2.2600 hc         1 FXM       0.039367
     66 H37B         5.3520    -3.1780     3.7780 hc         1 FXM       0.039367
     67 HN38         9.3430     1.3490     1.5670 hn         1 FXM       0.477000
     68 HN3A         9.6490     2.0800     0.0730 hn         1 FXM       0.477000
     69 C13          3.6760    -1.0220     0.0720 c          1 FXM       0.617300
@<TRIPOS>BOND
     1     1     2 2   
     2     1     6 1   
     3     1    15 1   
     4     2     3 1   
     5     2     8 1   
     6     3     4 1   
     7     3    38 1   
     8     4     5 1   
     9     4     7 1   
    10     4    39 1   
    11     5     6 1   
    12     6    40 1   
    13     6    41 1   
    14     7    11 1   
    15     7    13 1   
    16     7    42 1   
    17     8     9 1   
    18     8    10 2   
    19     9    25 1   
    20    11    12 2   
    21    11    43 1   
    22    13    44 1   
    23    13    69 1   
    24    14    69 2   
    25    15    16 1   
    26    15    45 1   
    27    15    46 1   
    28    16    17 1   
    29    17    18 1   
    30    17    19 2   
    31    18    47 1   
    32    18    48 1   
    33    20    21 1   
    34    20    24 2   
    35    20    33 1   
    36    21    22 2   
    37    22    23 1   
    38    22    37 1   
    39    23    24 1   
    40    24    49 1   
    41    25    27 1   
    42    25    50 1   
    43    25    51 1   
    44    26    27 1   
    45    26    28 2   
    46    26    29 1   
    47    29    30 1   
    48    29    31 1   
    49    29    32 1   
    50    30    52 1   
    51    30    53 1   
    52    30    54 1   
    53    31    55 1   
    54    31    56 1   
    55    31    57 1   
    56    32    58 1   
    57    32    59 1   
    58    32    60 1   
    59    33    34 2   
    60    33    69 1   
    61    34    35 1   
    62    34    61 1   
    63    35    36 1   
    64    35    62 1   
    65    35    63 1   
    66    36    64 1   
    67    36    65 1   
    68    36    66 1   
    69    37    67 1   
    70    37    68 1   
@<TRIPOS>SUBSTRUCTURE
     1 FXM         1 TEMP              0 ****  ****    0 ROOT
