@<TRIPOS>MOLECULE
FXM
   69    70     1     0     0
SMALL
No Charge or Current Charge


@<TRIPOS>ATOM
      1 C1          -1.8690     1.5270    -0.0500 c2         1 FXM      -0.176400
      2 C2          -1.7150     0.5470    -0.9970 ce         1 FXM       0.110800
      3 N3          -0.4260     0.0390    -1.3750 nu         1 FXM      -0.813200
      4 C4           0.8330     0.3100    -0.6770 c6         1 FXM       0.352500
      5 S5           0.9090     2.0950    -0.2910 ss         1 FXM      -0.413000
      6 C6          -0.6630     2.1480     0.6470 c6         1 FXM       0.110800
      7 C7           2.0660    -0.1090    -1.5310 c3         1 FXM      -0.008300
      8 C8          -2.8530    -0.1780    -1.7490 c          1 FXM       0.591300
      9 O9          -4.1110     0.3080    -1.5090 os         1 FXM      -0.439100
     10 O10         -2.6360    -1.1040    -2.5260 o          1 FXM      -0.452000
     11 C11          2.1480     0.6900    -2.8510 c          1 FXM       0.571900
     12 O12          3.1490     1.3030    -3.2180 o          1 FXM      -0.495100
     13 N14          3.3530    -0.0200    -0.7860 ns         1 FXM      -0.500900
     14 O15          2.9230    -1.6270     0.7530 o          1 FXM      -0.585100
     15 C16         -3.1730     2.1020     0.4910 c3         1 FXM       0.247800
     16 O17         -3.6810     1.1710     1.4580 os         1 FXM      -0.458100
     17 C18         -4.8200     1.5090     2.1140 c          1 FXM       0.638100
     18 N19         -5.1250     0.5660     3.0140 nt         1 FXM      -0.593000
     19 O20         -5.4780     2.5200     1.9440 o          1 FXM      -0.549000
     20 C21          6.0590    -0.0630     0.0120 cc         1 FXM       0.376800
     21 N22          6.9390     0.9220     0.3880 nc         1 FXM      -0.730000
     22 C23          7.8420     1.0660    -0.5400 cd         1 FXM       0.693300
     23 S24          7.7620     0.0170    -1.9420 ss         1 FXM      -0.094400
     24 C25          6.3520    -0.6940    -1.1760 cd         1 FXM      -0.258000
     25 C26         -5.2220    -0.3530    -2.1350 c3         1 FXM       0.382600
     26 C27         -6.0910    -1.5110    -0.2160 c          1 FXM       0.597100
     27 O28         -5.4300    -1.5750    -1.4140 os         1 FXM      -0.457100
     28 O29         -6.6520    -0.5050     0.1990 o          1 FXM      -0.463000
     29 C30         -6.1170    -2.8910     0.5090 c3         1 FXM      -0.097000
     30 C31         -6.9460    -2.8020     1.8220 c3         1 FXM      -0.083767
     31 C32         -6.7590    -3.9590    -0.4200 c3         1 FXM      -0.083767
     32 C33         -4.6610    -3.3070     0.8530 c3         1 FXM      -0.083767
     33 C34          4.9990    -0.4360     0.9460 ce         1 FXM      -0.234000
     34 C35          5.1540    -0.3260     2.2970 c2         1 FXM      -0.137200
     35 C36          4.1260    -0.5710     3.3880 c3         1 FXM      -0.052200
     36 C37          4.1590    -2.0190     3.9120 c3         1 FXM      -0.085100
     37 N38          8.7830     1.9880    -0.3180 nv         1 FXM      -1.041900
     38 HN3         -0.4540    -0.7750    -1.9970 hn         1 FXM       0.495000
     39 H4           0.8570    -0.2280     0.2840 h2         1 FXM       0.069700
     40 H6          -0.8510     3.2050     0.8850 h1         1 FXM       0.086200
     41 H6A         -0.4950     1.6270     1.6010 h1         1 FXM       0.086200
     42 H7           1.9200    -1.1580    -1.8180 h1         1 FXM       0.093700
     43 H11          1.2300     0.6760    -3.4790 h4         1 FXM       0.018200
     44 HN14         4.0190     0.6920    -1.0640 hn         1 FXM       0.336500
     45 H16         -2.9910     3.0740     0.9700 h1         1 FXM       0.057700
     46 H16A        -3.8960     2.2950    -0.3110 h1         1 FXM       0.057700
     47 HN19        -4.5250    -0.2370     3.1070 hn         1 FXM       0.327000
     48 HN1A        -5.9470     0.6730     3.5870 hn         1 FXM       0.327000
     49 H25          5.8300    -1.5260    -1.6330 h4         1 FXM       0.185000
     50 H26         -6.1190     0.2780    -2.1070 h2         1 FXM       0.090700
     51 H26A        -5.0070    -0.5570    -3.1910 h2         1 FXM       0.090700
     52 H31         -7.9820    -2.5090     1.6140 hc         1 FXM       0.045700
     53 H31A        -6.9670    -3.7690     2.3400 hc         1 FXM       0.045700
     54 H31B        -6.5160    -2.0630     2.5100 hc         1 FXM       0.045700
     55 H32         -6.1720    -4.0970    -1.3370 hc         1 FXM       0.045700
     56 H32A        -6.8200    -4.9310     0.0840 hc         1 FXM       0.045700
     57 H32B        -7.7740    -3.6630    -0.7100 hc         1 FXM       0.045700
     58 H33         -4.1790    -2.5510     1.4860 hc         1 FXM       0.045700
     59 H33A        -4.6420    -4.2630     1.3920 hc         1 FXM       0.045700
     60 H33B        -4.0540    -3.4220    -0.0540 hc         1 FXM       0.045700
     61 H35          6.1200    -0.0140     2.7010 ha         1 FXM       0.200000
     62 H36          4.3190     0.1060     4.2290 hc         1 FXM       0.045200
     63 H36A         3.1150    -0.3310     3.0390 hc         1 FXM       0.045200
     64 H37          3.4090    -2.1590     4.6990 hc         1 FXM       0.039367
     65 H37A         3.9470    -2.7320     3.1060 hc         1 FXM       0.039367
     66 H37B         5.1450    -2.2560     4.3300 hc         1 FXM       0.039367
     67 HN38         8.8390     2.3140     0.6380 hn         1 FXM       0.477000
     68 HN3A         9.6600     1.8860    -0.8150 hn         1 FXM       0.477000
     69 C13          3.6910    -0.7880     0.3070 c          1 FXM       0.617300
@<TRIPOS>BOND
     1     1     2 2   
     2     1     6 1   
     3     1    15 1   
     4     2     3 1   
     5     2     8 1   
     6     3     4 1   
     7     3    38 1   
     8     4     5 1   
     9     4     7 1   
    10     4    39 1   
    11     5     6 1   
    12     6    40 1   
    13     6    41 1   
    14     7    11 1   
    15     7    13 1   
    16     7    42 1   
    17     8     9 1   
    18     8    10 2   
    19     9    25 1   
    20    11    12 2   
    21    11    43 1   
    22    13    44 1   
    23    13    69 1   
    24    14    69 2   
    25    15    16 1   
    26    15    45 1   
    27    15    46 1   
    28    16    17 1   
    29    17    18 1   
    30    17    19 2   
    31    18    47 1   
    32    18    48 1   
    33    20    21 1   
    34    20    24 2   
    35    20    33 1   
    36    21    22 2   
    37    22    23 1   
    38    22    37 1   
    39    23    24 1   
    40    24    49 1   
    41    25    27 1   
    42    25    50 1   
    43    25    51 1   
    44    26    27 1   
    45    26    28 2   
    46    26    29 1   
    47    29    30 1   
    48    29    31 1   
    49    29    32 1   
    50    30    52 1   
    51    30    53 1   
    52    30    54 1   
    53    31    55 1   
    54    31    56 1   
    55    31    57 1   
    56    32    58 1   
    57    32    59 1   
    58    32    60 1   
    59    33    34 2   
    60    33    69 1   
    61    34    35 1   
    62    34    61 1   
    63    35    36 1   
    64    35    62 1   
    65    35    63 1   
    66    36    64 1   
    67    36    65 1   
    68    36    66 1   
    69    37    67 1   
    70    37    68 1   
@<TRIPOS>SUBSTRUCTURE
     1 FXM         1 TEMP              0 ****  ****    0 ROOT
