@<TRIPOS>MOLECULE
FXN
   27    28     1     0     0
SMALL
No Charge or Current Charge


@<TRIPOS>ATOM
      1 F18         -0.1150     0.0210    -6.0110 f          1 FXN      -0.183000
      2 C10          0.1610     0.0130    -4.6880 ca         1 FXN       0.136000
      3 C6          -0.8950     0.0350    -3.7550 ca         1 FXN      -0.091000
      4 C11          1.5060    -0.0170    -4.2540 ca         1 FXN      -0.118000
      5 C8           1.8070    -0.0260    -2.8740 ca         1 FXN      -0.107000
      6 C12          0.7390    -0.0030    -1.9650 ca         1 FXN      -0.052200
      7 N1           0.8020    -0.0070    -0.5800 na         1 FXN      -0.214700
      8 C16         -0.5580     0.0260    -2.3950 ca         1 FXN      -0.095800
      9 C5          -1.3890     0.0430    -1.2320 cc         1 FXN      -0.157200
     10 C13         -0.5480     0.0230    -0.1210 cd         1 FXN      -0.146300
     11 C7          -1.0640     0.0320     1.2820 c          1 FXN       0.628300
     12 O17         -2.2530     0.0580     1.5700 o          1 FXN      -0.574100
     13 N3          -0.0790     0.0090     2.2440 ns         1 FXN      -0.510900
     14 C14         -0.3440     0.0130     3.6870 c3         1 FXN       0.109000
     15 C9           0.9510    -0.0130     4.5210 c3         1 FXN       0.054600
     16 S19          0.6530    -0.0090     6.3510 sh         1 FXN      -0.426800
     17 H6          -1.9310     0.0590    -4.0810 ha         1 FXN       0.138000
     18 H11          2.3090    -0.0340    -4.9860 ha         1 FXN       0.131000
     19 H8           2.8390    -0.0490    -2.5280 ha         1 FXN       0.119000
     20 HN1          1.6480    -0.0260    -0.0200 hn         1 FXN       0.350000
     21 H5          -2.4770     0.0670    -1.2020 ha         1 FXN       0.225000
     22 HN3          0.8790    -0.0120     1.9250 hn         1 FXN       0.308500
     23 H141        -0.9200     0.9140     3.9410 h1         1 FXN       0.070700
     24 H142        -0.9550    -0.8640     3.9390 h1         1 FXN       0.070700
     25 H91          1.5270    -0.9130     4.2680 h1         1 FXN       0.061700
     26 H92          1.5620     0.8640     4.2700 h1         1 FXN       0.061700
     27 H19          1.9590    -0.0350     6.7160 hs         1 FXN       0.212800
@<TRIPOS>BOND
     1     1     2 1   
     2     2     3 ar  
     3     2     4 ar  
     4     3     8 ar  
     5     3    17 1   
     6     4     5 ar  
     7     4    18 1   
     8     5     6 ar  
     9     5    19 1   
    10     6     7 1   
    11     6     8 ar  
    12     7    10 1   
    13     7    20 1   
    14     8     9 1   
    15     9    10 2   
    16     9    21 1   
    17    10    11 1   
    18    11    12 2   
    19    11    13 1   
    20    13    14 1   
    21    13    22 1   
    22    14    15 1   
    23    14    23 1   
    24    14    24 1   
    25    15    16 1   
    26    15    25 1   
    27    15    26 1   
    28    16    27 1   
@<TRIPOS>SUBSTRUCTURE
     1 FXN         1 TEMP              0 ****  ****    0 ROOT
