@<TRIPOS>MOLECULE
FXN
   27    28     1     0     0
SMALL
abcg2


@<TRIPOS>ATOM
      1 F18         -0.0250    -0.3410    -5.8910 f          1 FXN      -0.183000
      2 C10          0.1920    -0.1800    -4.5690 ca         1 FXN       0.136000
      3 C6          -0.8790    -0.1880    -3.7150 ca         1 FXN      -0.091000
      4 C11          1.5160    -0.0130    -4.1480 ca         1 FXN      -0.118000
      5 C8           1.7980     0.1490    -2.8080 ca         1 FXN      -0.107000
      6 C12          0.7270     0.1360    -1.9150 ca         1 FXN      -0.052200
      7 N1           0.7090     0.2600    -0.5580 na         1 FXN      -0.214700
      8 C16         -0.6090    -0.0180    -2.3490 ca         1 FXN      -0.095800
      9 C5          -1.4280     0.0470    -1.1890 cc         1 FXN      -0.157200
     10 C13         -0.5890     0.2180    -0.1200 cd         1 FXN      -0.146300
     11 C7          -0.9900     0.3090     1.2990 c          1 FXN       0.628300
     12 O17         -2.1250     0.6420     1.6070 o          1 FXN      -0.574100
     13 N3          -0.0390     0.0060     2.2010 ns         1 FXN      -0.510900
     14 C14         -0.3110     0.0100     3.6230 c3         1 FXN       0.109000
     15 C9           0.9930    -0.1390     4.3880 c3         1 FXN       0.054600
     16 S19          0.6090    -0.1580     6.1690 sh         1 FXN      -0.426800
     17 H6          -1.8890    -0.3180    -4.0820 ha         1 FXN       0.138000
     18 H11          2.3130    -0.0130    -4.8800 ha         1 FXN       0.131000
     19 H8           2.8170     0.2770    -2.4690 ha         1 FXN       0.119000
     20 HN1          1.5110     0.5030     0.0020 hn         1 FXN       0.350000
     21 H5          -2.5010    -0.0470    -1.1410 ha         1 FXN       0.225000
     22 HN3          0.7860    -0.4850     1.8940 hn         1 FXN       0.308500
     23 H141        -0.7940     0.9500     3.8930 h1         1 FXN       0.070700
     24 H142        -0.9980    -0.8000     3.8890 h1         1 FXN       0.070700
     25 H91          1.4910    -1.0700     4.1170 h1         1 FXN       0.061700
     26 H92          1.6610     0.6930     4.1660 h1         1 FXN       0.061700
     27 H19          1.8680    -0.2600     6.6080 hs         1 FXN       0.212800
@<TRIPOS>BOND
     1     1     2 1   
     2     2     3 ar  
     3     2     4 ar  
     4     3     8 ar  
     5     3    17 1   
     6     4     5 ar  
     7     4    18 1   
     8     5     6 ar  
     9     5    19 1   
    10     6     7 1   
    11     6     8 ar  
    12     7    10 1   
    13     7    20 1   
    14     8     9 1   
    15     9    10 2   
    16     9    21 1   
    17    10    11 1   
    18    11    12 2   
    19    11    13 1   
    20    13    14 1   
    21    13    22 1   
    22    14    15 1   
    23    14    23 1   
    24    14    24 1   
    25    15    16 1   
    26    15    25 1   
    27    15    26 1   
    28    16    27 1   
@<TRIPOS>SUBSTRUCTURE
     1 FXN         1 TEMP              0 ****  ****    0 ROOT
