@<TRIPOS>MOLECULE
FXP
   36    37     1     0     0
SMALL
bcc


@<TRIPOS>ATOM
      1 O1          -4.2620     1.5280     0.1750 oh         1 FXP      -0.600800
      2 C1A         -3.9180     0.6180    -0.8110 c6         1 FXP       0.312900
      3 C2A         -3.5580    -0.7050    -0.1430 c6         1 FXP       0.118600
      4 C3A         -2.2810    -0.6170     0.6840 c6         1 FXP       0.128100
      5 C4A         -1.1810    -0.0920    -0.2260 c6         1 FXP       0.120100
      6 C5A         -1.6290     1.2160    -0.8740 c6         1 FXP       0.101400
      7 F2A         -4.6090    -1.1110     0.6710 f          1 FXP      -0.234300
      8 O3A         -1.8980    -1.8750     1.1710 oh         1 FXP      -0.574800
      9 O4A         -0.0190     0.1320     0.5490 os         1 FXP      -0.386600
     10 O5A         -2.8320     1.0360    -1.5970 os         1 FXP      -0.426600
     11 C1B          1.1790    -0.0270    -0.1200 c6         1 FXP       0.303900
     12 C2B          2.2420     0.8080     0.5970 c6         1 FXP       0.130100
     13 C3B          3.5840     0.5870    -0.0840 c6         1 FXP       0.159100
     14 C4B          3.8800    -0.9080    -0.1630 c6         1 FXP       0.066100
     15 C5B          2.7080    -1.6370    -0.8140 c6         1 FXP       0.109400
     16 O2B          1.9310     2.1740     0.5360 oh         1 FXP      -0.576800
     17 O3B          4.5690     1.2810     0.6360 oh         1 FXP      -0.577800
     18 O4B          5.0610    -1.0630    -0.9150 oh         1 FXP      -0.598800
     19 O5B          1.5150    -1.3880    -0.1030 os         1 FXP      -0.409600
     20 H1A         -4.7380     0.4680    -1.5230 h2         1 FXP       0.076700
     21 H2A         -3.4310    -1.4640    -0.9210 h1         1 FXP       0.076700
     22 H3A         -2.4300     0.1010     1.5040 h1         1 FXP       0.070700
     23 H4A         -0.9910    -0.8410    -1.0060 h1         1 FXP       0.071700
     24 H5A         -1.7340     1.9900    -0.1040 h1         1 FXP       0.065200
     25 H5AA        -0.8860     1.5630    -1.5930 h1         1 FXP       0.065200
     26 HO3A        -2.5100    -2.1340     1.8680 ho         1 FXP       0.416000
     27 H1B          1.1000     0.3210    -1.1670 h2         1 FXP       0.031700
     28 H2B          2.3100     0.4530     1.6370 h1         1 FXP       0.067700
     29 H3B          3.5080     0.9680    -1.1170 h1         1 FXP       0.050700
     30 H4B          4.0100    -1.2880     0.8600 h1         1 FXP       0.058700
     31 H5B          2.6170    -1.3260    -1.8640 h1         1 FXP       0.056700
     32 H5BA         2.8710    -2.7160    -0.8010 h1         1 FXP       0.056700
     33 HO2B         1.1330     2.3220     1.0520 ho         1 FXP       0.417000
     34 HO3B         5.4190     1.1080     0.2160 ho         1 FXP       0.419000
     35 HO4B         5.4120    -1.9460    -0.7600 ho         1 FXP       0.414000
     36 H17         -4.6920     2.2880    -0.2320 ho         1 FXP       0.423000
@<TRIPOS>BOND
     1     1     2 1   
     2     1    36 1   
     3     2     3 1   
     4     2    10 1   
     5     2    20 1   
     6     3     4 1   
     7     3     7 1   
     8     3    21 1   
     9     4     5 1   
    10     4     8 1   
    11     4    22 1   
    12     5     6 1   
    13     5     9 1   
    14     5    23 1   
    15     6    10 1   
    16     6    24 1   
    17     6    25 1   
    18     8    26 1   
    19     9    11 1   
    20    11    12 1   
    21    11    19 1   
    22    11    27 1   
    23    12    13 1   
    24    12    16 1   
    25    12    28 1   
    26    13    14 1   
    27    13    17 1   
    28    13    29 1   
    29    14    15 1   
    30    14    18 1   
    31    14    30 1   
    32    15    19 1   
    33    15    31 1   
    34    15    32 1   
    35    16    33 1   
    36    17    34 1   
    37    18    35 1   
@<TRIPOS>SUBSTRUCTURE
     1 FXP         1 TEMP              0 ****  ****    0 ROOT
