@<TRIPOS>MOLECULE
FXP
   36    37     1     0     0
SMALL
No Charge or Current Charge


@<TRIPOS>ATOM
      1 O1          -4.2940     1.6110    -0.3910 oh         1 FXP      -0.663000
      2 C1A         -3.9800     0.3540    -0.9920 c6         1 FXP       0.359300
      3 C2A         -3.7050    -0.7690     0.0560 c6         1 FXP       0.137300
      4 C3A         -2.4280    -0.4650     0.8920 c6         1 FXP       0.151300
      5 C4A         -1.2170    -0.2030    -0.0600 c6         1 FXP       0.143300
      6 C5A         -1.5970     0.9080    -1.0850 c6         1 FXP       0.124600
      7 F2A         -4.8130    -0.8890     0.9320 f          1 FXP      -0.253000
      8 O3A         -2.1500    -1.5360     1.8270 oh         1 FXP      -0.697000
      9 O4A         -0.0340     0.1480     0.7070 os         1 FXP      -0.433000
     10 O5A         -2.8090     0.5580    -1.8060 os         1 FXP      -0.473000
     11 C1B          1.2150     0.1430    -0.0150 c6         1 FXP       0.350300
     12 C2B          2.3580     0.7130     0.8890 c6         1 FXP       0.153300
     13 C3B          3.7050     0.6430     0.0950 c6         1 FXP       0.182300
     14 C4B          3.9580    -0.8090    -0.4200 c6         1 FXP       0.089300
     15 C5B          2.7210    -1.3050    -1.2230 c6         1 FXP       0.132600
     16 O2B          2.0530     2.0600     1.3360 oh         1 FXP      -0.699000
     17 O3B          4.8320     1.0530     0.8910 oh         1 FXP      -0.640000
     18 O4B          5.1630    -0.8540    -1.2160 oh         1 FXP      -0.721000
     19 O5B          1.5320    -1.2060    -0.4070 os         1 FXP      -0.456000
     20 H1A         -4.8160     0.0360    -1.6350 h2         1 FXP       0.076700
     21 H2A         -3.5930    -1.7290    -0.4660 h1         1 FXP       0.076700
     22 H3A         -2.6110     0.4670     1.4490 h1         1 FXP       0.070700
     23 H4A         -1.0150    -1.1320    -0.6130 h1         1 FXP       0.071700
     24 H5A         -1.7320     1.8700    -0.5690 h1         1 FXP       0.065200
     25 H5AA        -0.7890     1.0350    -1.8190 h1         1 FXP       0.065200
     26 HO3A        -2.9490    -1.6270     2.3970 ho         1 FXP       0.515000
     27 H1B          1.1250     0.7740    -0.9110 h2         1 FXP       0.031700
     28 H2B          2.4470     0.0470     1.7610 h1         1 FXP       0.067700
     29 H3B          3.6140     1.3020    -0.7820 h1         1 FXP       0.050700
     30 H4B          4.0670    -1.4660     0.4570 h1         1 FXP       0.058700
     31 H5B          2.5870    -0.7070    -2.1370 h1         1 FXP       0.056700
     32 H5BA         2.8590    -2.3550    -1.5160 h1         1 FXP       0.056700
     33 HO2B         1.1550     2.0150     1.7420 ho         1 FXP       0.516000
     34 HO3B         5.6120     0.7030     0.4050 ho         1 FXP       0.458000
     35 HO4B         5.3540    -1.8030    -1.4140 ho         1 FXP       0.513000
     36 H17         -4.3730     2.2380    -1.1410 ho         1 FXP       0.462000
@<TRIPOS>BOND
     1     1     2 1   
     2     1    36 1   
     3     2     3 1   
     4     2    10 1   
     5     2    20 1   
     6     3     4 1   
     7     3     7 1   
     8     3    21 1   
     9     4     5 1   
    10     4     8 1   
    11     4    22 1   
    12     5     6 1   
    13     5     9 1   
    14     5    23 1   
    15     6    10 1   
    16     6    24 1   
    17     6    25 1   
    18     8    26 1   
    19     9    11 1   
    20    11    12 1   
    21    11    19 1   
    22    11    27 1   
    23    12    13 1   
    24    12    16 1   
    25    12    28 1   
    26    13    14 1   
    27    13    17 1   
    28    13    29 1   
    29    14    15 1   
    30    14    18 1   
    31    14    30 1   
    32    15    19 1   
    33    15    31 1   
    34    15    32 1   
    35    16    33 1   
    36    17    34 1   
    37    18    35 1   
@<TRIPOS>SUBSTRUCTURE
     1 FXP         1 TEMP              0 ****  ****    0 ROOT
