@<TRIPOS>MOLECULE
FXR
   43    46     1     0     0
SMALL
abcg2


@<TRIPOS>ATOM
      1 CAA          7.9920    22.2030   -62.1980 cc         1 FXR      -0.184000
      2 CAB          6.9400    23.1420   -62.3360 cc         1 FXR      -0.049000
      3 CAC          6.5770    23.9440   -61.3000 cd         1 FXR      -0.104300
      4 CAD          7.2740    23.8370   -60.0480 cd         1 FXR       0.120000
      5 CAF          8.6360    22.1020   -61.0200 cd         1 FXR      -0.065000
      6 CAH          7.5670    24.5250   -57.8850 ca         1 FXR       0.436000
      7 CAI          8.6020    23.5910   -57.6850 ca         1 FXR      -0.366600
      8 CAJ          9.0170    22.7220   -58.7400 c          1 FXR       0.555400
      9 CAL          5.4720    24.9440   -61.4070 c3         1 FXR      -0.032800
     10 CAN          7.7720    25.3310   -55.7380 ca         1 FXR       0.450900
     11 CAO          8.8050    24.3770   -55.4190 ca         1 FXR      -0.314600
     12 CAP          9.2060    23.5370   -56.4230 ca         1 FXR       0.072000
     13 CAQ          9.4400    24.3420   -54.0760 c          1 FXR       0.636700
     14 CAT         10.5930    22.9910   -52.4100 c3         1 FXR       0.161300
     15 CAU         11.9680    23.6070   -52.4260 ca         1 FXR      -0.156300
     16 CAV         12.3670    24.5370   -51.4770 ca         1 FXR      -0.047000
     17 CAW         13.6540    25.0520   -51.5300 ca         1 FXR      -0.165000
     18 CAX         14.4970    24.6200   -52.5410 ca         1 FXR       0.339900
     19 CAZ         12.8980    23.2460   -53.3960 ca         1 FXR       0.347900
     20 NAE          8.2890    22.9000   -59.9550 n          1 FXR      -0.013800
     21 NAG          6.9220    24.6210   -59.0630 nc         1 FXR      -0.445000
     22 NAM          7.1820    25.3650   -56.9250 nb         1 FXR      -0.259000
     23 NAR          9.8880    23.1450   -53.6620 ns         1 FXR      -0.501900
     24 NAY         14.1300    23.7330   -53.4600 nb         1 FXR      -0.667000
     25 NBA          7.3370    26.2060   -54.8280 nv         1 FXR      -1.056900
     26 OAK          9.8960    21.8850   -58.6810 o          1 FXR      -0.531000
     27 OAS          9.5530    25.3480   -53.3810 o          1 FXR      -0.629100
     28 H1           8.2820    21.5670   -63.0210 ha         1 FXR       0.137000
     29 H2           6.4180    23.2200   -63.2810 ha         1 FXR       0.127000
     30 H3           9.4410    21.4080   -60.8420 h4         1 FXR       0.168000
     31 H4           4.6840    24.7400   -60.6810 hc         1 FXR       0.053700
     32 H5           5.8310    25.9540   -61.2110 hc         1 FXR       0.053700
     33 H6           5.0340    24.9220   -62.4030 hc         1 FXR       0.053700
     34 H7          10.0080    22.8270   -56.2630 ha         1 FXR       0.130000
     35 H8          10.0100    23.4120   -51.5880 h1         1 FXR       0.056200
     36 H9          10.6710    21.9190   -52.2240 h1         1 FXR       0.056200
     37 H10         11.6780    24.8560   -50.7030 ha         1 FXR       0.122000
     38 H11         13.9960    25.7790   -50.8060 ha         1 FXR       0.124000
     39 H12         15.5080    25.0040   -52.6120 h4         1 FXR       0.019100
     40 H13         12.6280    22.5240   -54.1620 h4         1 FXR       0.014100
     41 H15          9.6700    22.3150   -54.1860 hn         1 FXR       0.323500
     42 H16          6.6600    26.8950   -55.1080 hn         1 FXR       0.514500
     43 H17          7.8540    26.3520   -53.9760 hn         1 FXR       0.514500
@<TRIPOS>BOND
     1     1     2 1   
     2     1     5 2   
     3     1    28 1   
     4     2     3 2   
     5     2    29 1   
     6     3     4 1   
     7     3     9 1   
     8     4    20 1   
     9     4    21 2   
    10     5    20 1   
    11     5    30 1   
    12     6     7 ar  
    13     6    21 1   
    14     6    22 ar  
    15     7     8 1   
    16     7    12 ar  
    17     8    20 1   
    18     8    26 2   
    19     9    31 1   
    20     9    32 1   
    21     9    33 1   
    22    10    11 ar  
    23    10    22 ar  
    24    10    25 1   
    25    11    12 ar  
    26    11    13 1   
    27    12    34 1   
    28    13    23 1   
    29    13    27 2   
    30    14    15 1   
    31    14    23 1   
    32    14    35 1   
    33    14    36 1   
    34    15    16 ar  
    35    15    19 ar  
    36    16    17 ar  
    37    16    37 1   
    38    17    18 ar  
    39    17    38 1   
    40    18    24 ar  
    41    18    39 1   
    42    19    24 ar  
    43    19    40 1   
    44    23    41 1   
    45    25    42 1   
    46    25    43 1   
@<TRIPOS>SUBSTRUCTURE
     1 FXR         1 TEMP              0 ****  ****    0 ROOT
