@<TRIPOS>MOLECULE
FXR
   43    46     1     0     0
SMALL
No Charge or Current Charge


@<TRIPOS>ATOM
      1 CAA          8.1390    22.4170   -62.2780 cc         1 FXR      -0.184000
      2 CAB          7.0550    23.3210   -62.4110 cc         1 FXR      -0.049000
      3 CAC          6.6130    24.0540   -61.3310 cd         1 FXR      -0.104300
      4 CAD          7.2930    23.8730   -60.0500 cd         1 FXR       0.120000
      5 CAF          8.7520    22.2750   -61.0620 cd         1 FXR      -0.065000
      6 CAH          7.4150    24.4900   -57.8020 ca         1 FXR       0.436000
      7 CAI          8.4950    23.6200   -57.5680 ca         1 FXR      -0.366600
      8 CAJ          9.0220    22.8030   -58.6820 c          1 FXR       0.555400
      9 CAL          5.4500    25.0160   -61.4970 c3         1 FXR      -0.032800
     10 CAN          7.4800    25.1550   -55.5750 ca         1 FXR       0.450900
     11 CAO          8.5550    24.3200   -55.2460 ca         1 FXR      -0.314600
     12 CAP          9.0740    23.5300   -56.2890 ca         1 FXR       0.072000
     13 CAQ          9.1450    24.2790   -53.8580 c          1 FXR       0.636700
     14 CAT         10.6910    23.0200   -52.3220 c3         1 FXR       0.161300
     15 CAU         12.1220    23.5220   -52.4040 ca         1 FXR      -0.156300
     16 CAV         12.4110    24.8960   -52.3180 ca         1 FXR      -0.047000
     17 CAW         13.7530    25.3000   -52.4000 ca         1 FXR      -0.165000
     18 CAX         14.7540    24.3280   -52.5620 ca         1 FXR       0.339900
     19 CAZ         13.1900    22.6170   -52.5660 ca         1 FXR       0.347900
     20 NAE          8.3730    22.9760   -59.9080 n          1 FXR      -0.013800
     21 NAG          6.8000    24.6240   -59.0580 nc         1 FXR      -0.445000
     22 NAM          6.9370    25.2370   -56.7910 nb         1 FXR      -0.259000
     23 NAR          9.9830    23.2220   -53.5860 ns         1 FXR      -0.501900
     24 NAY         14.4850    23.0040   -52.6440 nb         1 FXR      -0.667000
     25 NBA          6.8750    25.9530   -54.6630 nv         1 FXR      -1.056900
     26 OAK          9.9630    22.0330   -58.5230 o          1 FXR      -0.531000
     27 OAS          8.9270    25.1420   -53.0190 o          1 FXR      -0.629100
     28 H1           8.4700    21.8500   -63.1440 ha         1 FXR       0.137000
     29 H2           6.5830    23.4190   -63.3840 ha         1 FXR       0.127000
     30 H3           9.5850    21.5990   -60.9030 h4         1 FXR       0.168000
     31 H4           4.6160    24.7450   -60.8380 hc         1 FXR       0.053700
     32 H5           5.7490    26.0430   -61.2570 hc         1 FXR       0.053700
     33 H6           5.0650    25.0210   -62.5240 hc         1 FXR       0.053700
     34 H7           9.9230    22.8680   -56.1270 ha         1 FXR       0.130000
     35 H8          10.1630    23.5350   -51.5080 h1         1 FXR       0.056200
     36 H9          10.6860    21.9470   -52.0870 h1         1 FXR       0.056200
     37 H10         11.6170    25.6300   -52.1920 ha         1 FXR       0.122000
     38 H11         14.0210    26.3510   -52.3380 ha         1 FXR       0.124000
     39 H12         15.8020    24.6160   -52.6280 h4         1 FXR       0.019100
     40 H13         13.0050    21.5460   -52.6360 h4         1 FXR       0.014100
     41 H15         10.0970    22.5280   -54.3110 hn         1 FXR       0.323500
     42 H16          6.3340    26.7430   -55.0020 hn         1 FXR       0.514500
     43 H17          7.3780    26.0820   -53.7830 hn         1 FXR       0.514500
@<TRIPOS>BOND
     1     1     2 1   
     2     1     5 2   
     3     1    28 1   
     4     2     3 2   
     5     2    29 1   
     6     3     4 1   
     7     3     9 1   
     8     4    20 1   
     9     4    21 2   
    10     5    20 1   
    11     5    30 1   
    12     6     7 ar  
    13     6    21 1   
    14     6    22 ar  
    15     7     8 1   
    16     7    12 ar  
    17     8    20 1   
    18     8    26 2   
    19     9    31 1   
    20     9    32 1   
    21     9    33 1   
    22    10    11 ar  
    23    10    22 ar  
    24    10    25 1   
    25    11    12 ar  
    26    11    13 1   
    27    12    34 1   
    28    13    23 1   
    29    13    27 2   
    30    14    15 1   
    31    14    23 1   
    32    14    35 1   
    33    14    36 1   
    34    15    16 ar  
    35    15    19 ar  
    36    16    17 ar  
    37    16    37 1   
    38    17    18 ar  
    39    17    38 1   
    40    18    24 ar  
    41    18    39 1   
    42    19    24 ar  
    43    19    40 1   
    44    23    41 1   
    45    25    42 1   
    46    25    43 1   
@<TRIPOS>SUBSTRUCTURE
     1 FXR         1 TEMP              0 ****  ****    0 ROOT
