@<TRIPOS>MOLECULE
FXS
   46    48     1     0     0
SMALL
No Charge or Current Charge


@<TRIPOS>ATOM
      1 C28          3.2150     3.3750     1.2110 ca         1 FXS      -0.090000
      2 C29          2.8750     2.0980     1.6770 ca         1 FXS      -0.076000
      3 C30          1.7510     1.4350     1.1610 ca         1 FXS      -0.060000
      4 C27          2.4190     3.9980     0.2390 ca         1 FXS      -0.066000
      5 C26          1.2780     3.3470    -0.2830 ca         1 FXS      -0.122200
      6 C25          0.9410     2.0340     0.1630 ca         1 FXS      -0.084600
      7 C21         -0.2220     1.2480    -0.4220 c          1 FXS       0.618700
      8 O22         -0.6640     1.4290    -1.5480 o          1 FXS      -0.417000
      9 O20         -0.6020     0.1900     0.3610 os         1 FXS      -0.347200
     10 C1          -1.5640    -0.7230    -0.0040 ca         1 FXS       0.140100
     11 C2          -2.8090    -0.6860     0.6550 ca         1 FXS      -0.030900
     12 Br1         -3.1640     0.6430     1.9910 br         1 FXS      -0.034100
     13 C3          -3.8070    -1.6210     0.3370 ca         1 FXS      -0.040000
     14 C4          -3.5570    -2.6000    -0.6370 ca         1 FXS      -0.025900
     15 Br2         -4.9150    -3.8740    -1.0730 br         1 FXS      -0.070100
     16 C5          -2.3160    -2.6490    -1.2920 ca         1 FXS      -0.051000
     17 C6          -1.3020    -1.7180    -0.9820 ca         1 FXS      -0.113300
     18 C7           0.0250    -1.8040    -1.7380 c3         1 FXS       0.155300
     19 N8           1.1910    -1.7100    -0.8610 ns         1 FXS      -0.499900
     20 C9           2.4410    -1.3180    -1.2830 c          1 FXS       0.617700
     21 O17          2.6920    -1.1850    -2.4730 o          1 FXS      -0.568100
     22 C10          3.4780    -1.1170    -0.1910 ca         1 FXS      -0.093600
     23 C15          4.5670    -0.2080    -0.3440 ca         1 FXS      -0.135200
     24 N16          4.6990     0.6710    -1.5420 no         1 FXS       0.698200
     25 O19          3.7730     1.4590    -1.7740 o          1 FXS      -0.393000
     26 O18          5.8180     0.7560    -2.0650 o          1 FXS      -0.393000
     27 C11          3.3850    -1.8600     1.0130 ca         1 FXS      -0.096000
     28 C12          4.3440    -1.7140     2.0280 ca         1 FXS      -0.073000
     29 C13          5.4180    -0.8290     1.8610 ca         1 FXS      -0.101000
     30 C14          5.5300    -0.0800     0.6810 ca         1 FXS      -0.055000
     31 N1           0.4380     4.0880    -1.2680 no         1 FXS       0.693200
     32 O2          -0.7470     4.2860    -0.9660 o          1 FXS      -0.381500
     33 O3           1.0190     4.6720    -2.1910 o          1 FXS      -0.381500
     34 H1           4.0900     3.8850     1.6090 ha         1 FXS       0.132000
     35 H2           3.4890     1.6150     2.4350 ha         1 FXS       0.141000
     36 H3           1.5280     0.4390     1.5370 ha         1 FXS       0.147000
     37 H4           2.6830     4.9990    -0.1000 ha         1 FXS       0.150000
     38 H5          -4.7680    -1.5870     0.8440 ha         1 FXS       0.151000
     39 H6          -2.1430    -3.4150    -2.0450 ha         1 FXS       0.140000
     40 H7           0.0840    -2.7540    -2.2850 h1         1 FXS       0.068700
     41 H8           0.0640    -0.9950    -2.4800 h1         1 FXS       0.068700
     42 H9           1.0460    -1.8000     0.1360 hn         1 FXS       0.328500
     43 H10          2.5840    -2.5800     1.1650 ha         1 FXS       0.134000
     44 H11          4.2600    -2.2980     2.9430 ha         1 FXS       0.130000
     45 H12          6.1610    -0.7200     2.6490 ha         1 FXS       0.133000
     46 H13          6.3590     0.6170     0.5720 ha         1 FXS       0.152000
@<TRIPOS>BOND
     1     1     2 ar  
     2     1     4 ar  
     3     1    34 1   
     4     2     3 ar  
     5     2    35 1   
     6     3     6 ar  
     7     3    36 1   
     8     4     5 ar  
     9     4    37 1   
    10     5     6 ar  
    11     5    31 1   
    12     6     7 1   
    13     7     8 2   
    14     7     9 1   
    15     9    10 1   
    16    10    11 ar  
    17    10    17 ar  
    18    11    12 1   
    19    11    13 ar  
    20    13    14 ar  
    21    13    38 1   
    22    14    15 1   
    23    14    16 ar  
    24    16    17 ar  
    25    16    39 1   
    26    17    18 1   
    27    18    19 1   
    28    18    40 1   
    29    18    41 1   
    30    19    20 1   
    31    19    42 1   
    32    20    21 2   
    33    20    22 1   
    34    22    23 ar  
    35    22    27 ar  
    36    23    24 1   
    37    23    30 ar  
    38    24    25 1   
    39    24    26 1   
    40    27    28 ar  
    41    27    43 1   
    42    28    29 ar  
    43    28    44 1   
    44    29    30 ar  
    45    29    45 1   
    46    30    46 1   
    47    31    32 1   
    48    31    33 1   
@<TRIPOS>SUBSTRUCTURE
     1 FXS         1 TEMP              0 ****  ****    0 ROOT
