@<TRIPOS>MOLECULE
FXS
   46    48     1     0     0
SMALL
abcg2


@<TRIPOS>ATOM
      1 C28          2.4700     4.7970    -0.1460 ca         1 FXS      -0.090000
      2 C29          2.7540     3.4430    -0.0970 ca         1 FXS      -0.076000
      3 C30          1.7270     2.5110    -0.1780 ca         1 FXS      -0.060000
      4 C27          1.1580     5.2310    -0.2730 ca         1 FXS      -0.066000
      5 C26          0.1480     4.2930    -0.3450 ca         1 FXS      -0.122200
      6 C25          0.4070     2.9250    -0.3060 ca         1 FXS      -0.084600
      7 C21         -0.6490     1.9150    -0.5680 c          1 FXS       0.618700
      8 O22         -1.5020     2.0020    -1.4010 o          1 FXS      -0.417000
      9 O20         -0.4810     0.8320     0.2170 os         1 FXS      -0.347200
     10 C1          -1.2880    -0.2560    -0.0110 ca         1 FXS       0.140100
     11 C2          -2.5130    -0.3630     0.6320 ca         1 FXS      -0.030900
     12 BR1         -3.0950     1.0140     1.7630 br         1 FXS      -0.034100
     13 C3          -3.3010    -1.4900     0.4580 ca         1 FXS      -0.040000
     14 C4          -2.8400    -2.4990    -0.3720 ca         1 FXS      -0.025900
     15 BR2         -3.8960    -4.0360    -0.6210 br         1 FXS      -0.070100
     16 C5          -1.6160    -2.4020    -1.0160 ca         1 FXS      -0.051000
     17 C6          -0.8310    -1.2700    -0.8440 ca         1 FXS      -0.113300
     18 C7           0.5050    -1.1710    -1.5280 c3         1 FXS       0.155300
     19 N8           1.5750    -1.4410    -0.5860 ns         1 FXS      -0.499900
     20 C9           2.8110    -1.7650    -0.9880 c          1 FXS       0.617700
     21 O17          3.1500    -1.8580    -2.1540 o          1 FXS      -0.568100
     22 C10          3.7580    -2.0970     0.1300 ca         1 FXS      -0.093600
     23 C15          4.9840    -1.4590     0.2980 ca         1 FXS      -0.135200
     24 N16          5.3010    -0.2780    -0.4880 no         1 FXS       0.698200
     25 O19          4.3840     0.4330    -0.8270 o          1 FXS      -0.393000
     26 O18          6.4610    -0.0610    -0.7410 o          1 FXS      -0.393000
     27 C11          3.4710    -3.1790     0.9510 ca         1 FXS      -0.096000
     28 C12          4.3820    -3.6040     1.9090 ca         1 FXS      -0.073000
     29 C13          5.5980    -2.9560     2.0530 ca         1 FXS      -0.101000
     30 C14          5.9080    -1.8760     1.2400 ca         1 FXS      -0.055000
     31 N1          -1.2240     4.7820    -0.3740 no         1 FXS       0.693200
     32 O2          -2.0280     4.2130     0.3240 o          1 FXS      -0.381500
     33 O3          -1.4610     5.7410    -1.0650 o          1 FXS      -0.381500
     34 H1           3.2660     5.5250    -0.0790 ha         1 FXS       0.132000
     35 H2           3.7760     3.1050    -0.0030 ha         1 FXS       0.141000
     36 H3           1.9670     1.4570    -0.1620 ha         1 FXS       0.147000
     37 H4           0.9330     6.2880    -0.2860 ha         1 FXS       0.150000
     38 H5          -4.2550    -1.5730     0.9610 ha         1 FXS       0.151000
     39 H6          -1.2620    -3.1960    -1.6600 ha         1 FXS       0.140000
     40 H7           0.5450    -1.9040    -2.3330 h1         1 FXS       0.068700
     41 H8           0.6410    -0.1920    -1.9970 h1         1 FXS       0.068700
     42 H9           1.3950    -1.3410     0.4010 hn         1 FXS       0.328500
     43 H10          2.5360    -3.7090     0.8310 ha         1 FXS       0.134000
     44 H11          4.1390    -4.4490     2.5390 ha         1 FXS       0.130000
     45 H12          6.3090    -3.2840     2.7990 ha         1 FXS       0.133000
     46 H13          6.8480    -1.3570     1.3620 ha         1 FXS       0.152000
@<TRIPOS>BOND
     1     1     2 ar  
     2     1     4 ar  
     3     1    34 1   
     4     2     3 ar  
     5     2    35 1   
     6     3     6 ar  
     7     3    36 1   
     8     4     5 ar  
     9     4    37 1   
    10     5     6 ar  
    11     5    31 1   
    12     6     7 1   
    13     7     8 2   
    14     7     9 1   
    15     9    10 1   
    16    10    11 ar  
    17    10    17 ar  
    18    11    12 1   
    19    11    13 ar  
    20    13    14 ar  
    21    13    38 1   
    22    14    15 1   
    23    14    16 ar  
    24    16    17 ar  
    25    16    39 1   
    26    17    18 1   
    27    18    19 1   
    28    18    40 1   
    29    18    41 1   
    30    19    20 1   
    31    19    42 1   
    32    20    21 2   
    33    20    22 1   
    34    22    23 ar  
    35    22    27 ar  
    36    23    24 1   
    37    23    30 ar  
    38    24    25 1   
    39    24    26 1   
    40    27    28 ar  
    41    27    43 1   
    42    28    29 ar  
    43    28    44 1   
    44    29    30 ar  
    45    29    45 1   
    46    30    46 1   
    47    31    32 1   
    48    31    33 1   
@<TRIPOS>SUBSTRUCTURE
     1 FXS         1 TEMP              0 ****  ****    0 ROOT
