@<TRIPOS>MOLECULE
FXU
   37    37     1     0     0
SMALL
bcc


@<TRIPOS>ATOM
      1 C1          -6.7860    10.4330     0.5440 ca         1 FXU      -0.144000
      2 C2          -7.7330    11.4370     0.6470 ca         1 FXU       0.121100
      3 C3          -9.0450    11.1760     0.9840 ca         1 FXU      -0.186000
      4 C4          -9.4480     9.8610     1.2280 ca         1 FXU       0.085600
      5 C5          -8.5110     8.8310     1.1210 ca         1 FXU      -0.141000
      6 C6          -7.1990     9.1320     0.7860 ca         1 FXU      -0.092000
      7 N7         -10.7870     9.6780     1.5700 ns         1 FXU      -0.480100
      8 C8         -11.4600     8.5310     1.8520 c          1 FXU       0.665100
      9 C9         -12.9480     8.7660     2.1040 c3         1 FXU       0.098500
     10 N10        -13.4900     7.6570     2.8570 n8         1 FXU      -0.864800
     11 C11        -13.6430     8.8780     0.7390 c3         1 FXU      -0.045400
     12 C12        -15.1240     9.1810     0.8910 c3         1 FXU      -0.197600
     13 O13        -10.9540     7.4280     1.8850 o          1 FXU      -0.538100
     14 O14         -7.3460    12.7600     0.4630 os         1 FXU      -0.380900
     15 C15         -7.4110    13.2620    -0.7760 c3         1 FXU       0.855700
     16 S19        -15.9890     9.3110    -0.6720 s6         1 FXU       1.004000
     17 O20        -17.3890     9.6220    -0.3780 o          1 FXU      -0.580300
     18 C21        -15.2640    10.7200    -1.4800 c3         1 FXU      -0.228300
     19 O22        -15.7030     8.1170    -1.4680 o          1 FXU      -0.580300
     20 F16         -6.6550    12.5910    -1.6460 f          1 FXU      -0.230300
     21 F17         -6.9810    14.5130    -0.7280 f          1 FXU      -0.230300
     22 F18         -8.6520    13.2650    -1.2660 f          1 FXU      -0.230300
     23 H1          -5.7570    10.6570     0.3010 ha         1 FXU       0.157000
     24 H2          -9.7550    11.9900     1.0720 ha         1 FXU       0.146000
     25 H3          -8.7890     7.8070     1.3030 ha         1 FXU       0.174000
     26 H4          -6.4810     8.3270     0.7140 ha         1 FXU       0.144000
     27 H5         -11.3290    10.5280     1.6210 hn         1 FXU       0.316500
     28 H6         -13.0510     9.7350     2.6180 h1         1 FXU       0.020700
     29 H7         -12.9500     7.5080     3.7000 hn         1 FXU       0.352800
     30 H8         -14.4220     7.8890     3.1750 hn         1 FXU       0.352800
     31 H10        -13.5050     7.9430     0.1940 hc         1 FXU       0.068700
     32 H11        -13.1640     9.6710     0.1610 hc         1 FXU       0.068700
     33 H12        -15.2990    10.1180     1.4230 h1         1 FXU       0.103200
     34 H13        -15.6590     8.3850     1.4150 h1         1 FXU       0.103200
     35 H14        -15.3320    11.5880    -0.8280 h1         1 FXU       0.104033
     36 H15        -14.2280    10.5180    -1.7400 h1         1 FXU       0.104033
     37 H16        -15.8400    10.8950    -2.3890 h1         1 FXU       0.104033
@<TRIPOS>BOND
     1     1     2 ar  
     2     1     6 ar  
     3     1    23 1   
     4     2     3 ar  
     5     2    14 1   
     6     3     4 ar  
     7     3    24 1   
     8     4     5 ar  
     9     4     7 1   
    10     5     6 ar  
    11     5    25 1   
    12     6    26 1   
    13     7     8 1   
    14     7    27 1   
    15     8     9 1   
    16     8    13 2   
    17     9    10 1   
    18     9    11 1   
    19     9    28 1   
    20    10    29 1   
    21    10    30 1   
    22    11    12 1   
    23    11    31 1   
    24    11    32 1   
    25    12    16 1   
    26    12    33 1   
    27    12    34 1   
    28    14    15 1   
    29    15    20 1   
    30    15    21 1   
    31    15    22 1   
    32    16    17 2   
    33    16    18 1   
    34    16    19 2   
    35    18    35 1   
    36    18    36 1   
    37    18    37 1   
@<TRIPOS>SUBSTRUCTURE
     1 FXU         1 TEMP              0 ****  ****    0 ROOT
