@<TRIPOS>MOLECULE
FXU
   37    37     1     0     0
SMALL
No Charge or Current Charge


@<TRIPOS>ATOM
      1 C1          -6.4280    10.0870     0.2890 ca         1 FXU      -0.126000
      2 C2          -7.1850    11.2490     0.5030 ca         1 FXU       0.121100
      3 C3          -8.5570    11.1320     0.8200 ca         1 FXU      -0.168000
      4 C4          -9.1680     9.8670     0.9240 ca         1 FXU      -0.007000
      5 C5          -8.3900     8.7090     0.7020 ca         1 FXU      -0.123000
      6 C6          -7.0260     8.8210     0.3870 ca         1 FXU      -0.074000
      7 N7         -10.5540     9.8350     1.2450 ns         1 FXU      -0.154000
      8 C8         -11.4450     8.7890     1.4620 c          1 FXU       0.598100
      9 C9         -12.9140     9.2610     1.7800 c3         1 FXU       0.098500
     10 N10        -13.4200     8.9300     3.1560 n8         1 FXU      -0.975200
     11 C11        -13.9030     8.7460     0.7000 c3         1 FXU      -0.045400
     12 C12        -15.3280     9.3660     0.8020 c3         1 FXU      -0.308400
     13 O13        -11.1330     7.6020     1.4190 o          1 FXU      -0.538100
     14 O14         -6.5270    12.4600     0.3880 os         1 FXU      -0.404100
     15 C15         -7.1570    13.7440     0.5760 c3         1 FXU       0.515000
     16 S19        -16.4760     8.8110    -0.4830 s6         1 FXU       1.084000
     17 O20        -17.7540     9.5000    -0.2670 o          1 FXU      -0.509500
     18 C21        -15.7860     9.4180    -2.0220 c3         1 FXU      -0.339100
     19 O22        -16.4480     7.3440    -0.5240 o          1 FXU      -0.509500
     20 F16         -8.1600    13.9540    -0.3070 f          1 FXU      -0.109000
     21 F17         -6.2640    14.7420     0.3990 f          1 FXU      -0.109000
     22 F18         -7.6620    13.8860     1.8240 f          1 FXU      -0.109000
     23 H1          -5.3720    10.1700     0.0440 ha         1 FXU       0.139000
     24 H2          -9.1670    12.0130     0.9910 ha         1 FXU       0.128000
     25 H3          -8.8190     7.7140     0.7660 ha         1 FXU       0.156000
     26 H4          -6.4320     7.9260     0.2170 ha         1 FXU       0.126000
     27 H5         -10.9720    10.7530     1.3290 hn         1 FXU       0.150000
     28 H6         -12.9120    10.3570     1.7120 h1         1 FXU       0.020700
     29 H7         -12.8480     9.4100     3.8630 hn         1 FXU       0.408000
     30 H8         -14.3510     9.3440     3.2820 hn         1 FXU       0.408000
     31 H10        -13.9680     7.6520     0.7650 hc         1 FXU       0.068700
     32 H11        -13.4790     8.9760    -0.2860 hc         1 FXU       0.068700
     33 H12        -15.2860    10.4580     0.7230 h1         1 FXU       0.103200
     34 H13        -15.8040     9.0910     1.7500 h1         1 FXU       0.103200
     35 H14        -15.6460    10.5000    -1.9220 h1         1 FXU       0.104033
     36 H15        -14.8340     8.9060    -2.1940 h1         1 FXU       0.104033
     37 H16        -16.5030     9.1860    -2.8160 h1         1 FXU       0.104033
@<TRIPOS>BOND
     1     1     2 ar  
     2     1     6 ar  
     3     1    23 1   
     4     2     3 ar  
     5     2    14 1   
     6     3     4 ar  
     7     3    24 1   
     8     4     5 ar  
     9     4     7 1   
    10     5     6 ar  
    11     5    25 1   
    12     6    26 1   
    13     7     8 1   
    14     7    27 1   
    15     8     9 1   
    16     8    13 2   
    17     9    10 1   
    18     9    11 1   
    19     9    28 1   
    20    10    29 1   
    21    10    30 1   
    22    11    12 1   
    23    11    31 1   
    24    11    32 1   
    25    12    16 1   
    26    12    33 1   
    27    12    34 1   
    28    14    15 1   
    29    15    20 1   
    30    15    21 1   
    31    15    22 1   
    32    16    17 2   
    33    16    18 1   
    34    16    19 2   
    35    18    35 1   
    36    18    36 1   
    37    18    37 1   
@<TRIPOS>SUBSTRUCTURE
     1 FXU         1 TEMP              0 ****  ****    0 ROOT
