@<TRIPOS>MOLECULE
FXV
   60    62     1     0     0
SMALL
abcg2


@<TRIPOS>ATOM
      1 C1           6.6890     0.7580     1.1320 ca         1 FXV      -0.070500
      2 C2           5.7990     0.5290     0.0850 cp         1 FXV      -0.071000
      3 C3           6.2240     0.9320    -1.1800 ca         1 FXV      -0.070500
      4 C4           7.4530     1.5170    -1.3640 ca         1 FXV      -0.168300
      5 N1           8.3000     1.7300    -0.3290 na         1 FXV       0.476300
      6 C6           7.9100     1.3490     0.9110 ca         1 FXV      -0.219000
      7 C7           2.1600    -0.3600    -0.2940 ca         1 FXV      -0.071000
      8 C8           1.9890    -1.3130     0.7070 ca         1 FXV      -0.155600
      9 C9           3.0740    -1.6400     1.5160 ca         1 FXV      -0.071000
     10 C10          4.3080    -1.0510     1.3100 ca         1 FXV      -0.108500
     11 C11          4.4880    -0.1010     0.3010 cp         1 FXV       0.000000
     12 C12          3.3920     0.2390    -0.4920 ca         1 FXV      -0.108500
     13 N14         -0.1500    -2.0780    -0.0760 ns         1 FXV      -0.520900
     14 C15         -1.5110    -2.5760    -0.0130 c3         1 FXV       0.120700
     15 C16         -1.6430    -3.8790    -0.7880 c3         1 FXV      -0.111100
     16 C17         -2.4630    -1.4810    -0.5310 c3         1 FXV      -0.135700
     17 C18         -2.1260    -0.1910     0.1870 c          1 FXV       0.593100
     18 O19         -1.6080     0.7210    -0.6190 os         1 FXV      -0.439100
     19 C20         -3.9380    -1.8340    -0.2910 c3         1 FXV      -0.031100
     20 C23         -5.3800     0.1460     0.2720 ca         1 FXV      -0.055000
     21 C24         -6.1870     1.2180    -0.1010 ca         1 FXV      -0.259900
     22 C25         -6.4790     1.4450    -1.4430 ca         1 FXV      -0.063000
     23 C26         -5.9530     0.5960    -2.4030 ca         1 FXV      -0.095000
     24 C27         -5.1450    -0.4670    -2.0270 ca         1 FXV      -0.039000
     25 C28         -4.8490    -0.7060    -0.6870 ca         1 FXV      -0.071300
     26 N30         -7.9280     2.6020     0.8070 nv         1 FXV      -0.568700
     27 N31         -5.9570     2.4300     1.9560 nv         1 FXV      -0.552800
     28 O32         -2.3050    -0.0160     1.3670 o          1 FXV      -0.493000
     29 C34         -1.2310     1.9720    -0.0400 c3         1 FXV       0.149900
     30 O1           9.4310     2.2740    -0.5150 o          1 FXV      -0.495000
     31 H1           6.4380     0.4990     2.1510 ha         1 FXV       0.135000
     32 H3           5.6100     0.7770    -2.0570 ha         1 FXV       0.135000
     33 H4           7.8150     1.8290    -2.3320 h4         1 FXV       0.172500
     34 H6           8.6160     1.5490     1.7030 h4         1 FXV       0.172500
     35 H7           1.3280    -0.0430    -0.9110 ha         1 FXV       0.125500
     36 H9           2.9600    -2.3730     2.3030 ha         1 FXV       0.125500
     37 H10          5.1420    -1.3490     1.9330 ha         1 FXV       0.122500
     38 H12          3.4870     1.0000    -1.2550 ha         1 FXV       0.122500
     39 H14          0.2200    -1.8880    -0.9950 hn         1 FXV       0.319500
     40 H15         -1.7350    -2.7590     1.0390 h1         1 FXV       0.101700
     41 H161        -0.9500    -4.6220    -0.3940 hc         1 FXV       0.050367
     42 H162        -2.6480    -4.2900    -0.7070 hc         1 FXV       0.050367
     43 H163        -1.4210    -3.7320    -1.8470 hc         1 FXV       0.050367
     44 H17         -2.2980    -1.3450    -1.6050 hc         1 FXV       0.078700
     45 H201        -4.1900    -2.7220    -0.8720 hc         1 FXV       0.077700
     46 H202        -4.0880    -2.0890     0.7600 hc         1 FXV       0.077700
     47 H23         -5.1800    -0.0500     1.3180 ha         1 FXV       0.138000
     48 H25         -7.0870     2.2880    -1.7460 ha         1 FXV       0.126000
     49 H26         -6.1680     0.7690    -3.4480 ha         1 FXV       0.147000
     50 H27         -4.7390    -1.1230    -2.7880 ha         1 FXV       0.142000
     51 H301        -8.3130     3.2660     1.4620 hn         1 FXV       0.379250
     52 H302        -8.5460     2.2580     0.0900 hn         1 FXV       0.379250
     53 H311        -4.9880     2.1570     1.9830 hn         1 FXV       0.379250
     54 H312        -6.2900     2.9960     2.7230 hn         1 FXV       0.379250
     55 H341        -0.8120     2.5610    -0.8500 h1         1 FXV       0.051367
     56 H342        -2.0940     2.4910     0.3770 h1         1 FXV       0.051367
     57 H343        -0.4820     1.8410     0.7400 h1         1 FXV       0.051367
     58 C13          0.6700    -1.9600     0.9860 c          1 FXV       0.618700
     59 C29         -6.7160     2.1220     0.9330 ce         1 FXV       0.521400
     60 O33          0.3810    -2.3390     2.1110 o          1 FXV      -0.580100
@<TRIPOS>BOND
     1     1     2 ar  
     2     1     6 ar  
     3     1    31 1   
     4     2     3 ar  
     5     2    11 1   
     6     3     4 ar  
     7     3    32 1   
     8     4     5 2   
     9     4    33 1   
    10     5     6 1   
    11     5    30 1   
    12     6    34 1   
    13     7     8 ar  
    14     7    12 ar  
    15     7    35 1   
    16     8     9 ar  
    17     8    58 1   
    18     9    10 ar  
    19     9    36 1   
    20    10    11 ar  
    21    10    37 1   
    22    11    12 ar  
    23    12    38 1   
    24    13    14 1   
    25    13    39 1   
    26    13    58 1   
    27    14    15 1   
    28    14    16 1   
    29    14    40 1   
    30    15    41 1   
    31    15    42 1   
    32    15    43 1   
    33    16    17 1   
    34    16    19 1   
    35    16    44 1   
    36    17    18 1   
    37    17    28 2   
    38    18    29 1   
    39    19    25 1   
    40    19    45 1   
    41    19    46 1   
    42    20    21 ar  
    43    20    25 ar  
    44    20    47 1   
    45    21    22 ar  
    46    21    59 1   
    47    22    23 ar  
    48    22    48 1   
    49    23    24 ar  
    50    23    49 1   
    51    24    25 ar  
    52    24    50 1   
    53    26    51 1   
    54    26    52 1   
    55    26    59 2   
    56    27    53 1   
    57    27    54 1   
    58    27    59 1   
    59    29    55 1   
    60    29    56 1   
    61    29    57 1   
    62    58    60 2   
@<TRIPOS>SUBSTRUCTURE
     1 FXV         1 TEMP              0 ****  ****    0 ROOT
