@<TRIPOS>MOLECULE
FXV
   60    62     1     0     0
SMALL
No Charge or Current Charge


@<TRIPOS>ATOM
      1 C1           6.9290     0.7720     1.1210 ca         1 FXV      -0.070500
      2 C2           6.1070     0.3990     0.0260 cp         1 FXV      -0.071000
      3 C3           6.5960     0.6580    -1.2810 ca         1 FXV      -0.070500
      4 C4           7.8530     1.2630    -1.4690 ca         1 FXV      -0.168300
      5 N1           8.6430     1.6210    -0.3840 na         1 FXV       0.476300
      6 C6           8.1820     1.3760     0.9030 ca         1 FXV      -0.219000
      7 C7           2.4260    -0.5800    -0.4230 ca         1 FXV      -0.071000
      8 C8           2.2180    -1.4740     0.6540 ca         1 FXV      -0.155600
      9 C9           3.3000    -1.7410     1.5210 ca         1 FXV      -0.071000
     10 C10          4.5520    -1.1370     1.3170 ca         1 FXV      -0.108500
     11 C11          4.7710    -0.2440     0.2420 cp         1 FXV       0.000000
     12 C12          3.6820     0.0210    -0.6210 ca         1 FXV      -0.108500
     13 N14         -0.1190    -1.8830    -0.0090 ns         1 FXV      -0.520900
     14 C15         -1.4880    -2.4010     0.0690 c3         1 FXV       0.120700
     15 C16         -1.5780    -3.7220    -0.7240 c3         1 FXV      -0.111100
     16 C17         -2.5000    -1.3160    -0.3930 c3         1 FXV      -0.135700
     17 C18         -2.2210     0.0120     0.3350 c          1 FXV       0.593100
     18 O19         -1.7330     0.9680    -0.5180 os         1 FXV      -0.439100
     19 C20         -3.9900    -1.7260    -0.2260 c3         1 FXV      -0.031100
     20 C23         -5.6250     0.1560     0.2920 ca         1 FXV      -0.055000
     21 C24         -6.5030     1.1910    -0.1050 ca         1 FXV      -0.259900
     22 C25         -6.6920     1.4320    -1.4850 ca         1 FXV      -0.063000
     23 C26         -6.0160     0.6560    -2.4410 ca         1 FXV      -0.095000
     24 C27         -5.1460    -0.3680    -2.0350 ca         1 FXV      -0.039000
     25 C28         -4.9460    -0.6230    -0.6660 ca         1 FXV      -0.071300
     26 N30         -8.4830     2.4540     0.6550 nv         1 FXV      -0.568700
     27 N31         -6.5900     2.3170     2.0910 nv         1 FXV      -0.552800
     28 O32         -2.4050     0.1850     1.5330 o          1 FXV      -0.493000
     29 C34         -1.4230     2.2640     0.0260 c3         1 FXV       0.149900
     30 O1           9.7450     2.1520    -0.5610 o          1 FXV      -0.495000
     31 H1           6.5910     0.6060     2.1420 ha         1 FXV       0.135000
     32 H3           6.0080     0.3770    -2.1520 ha         1 FXV       0.135000
     33 H4           8.2540     1.4670    -2.4600 h4         1 FXV       0.172500
     34 H6           8.8290     1.6770     1.7250 h4         1 FXV       0.172500
     35 H7           1.6260    -0.3290    -1.1150 ha         1 FXV       0.125500
     36 H9           3.1770    -2.4250     2.3590 ha         1 FXV       0.125500
     37 H10          5.3660    -1.3780     1.9960 ha         1 FXV       0.122500
     38 H12          3.8040     0.7140    -1.4500 ha         1 FXV       0.122500
     39 H14          0.1270    -1.2950    -0.7940 hn         1 FXV       0.319500
     40 H15         -1.7070    -2.6280     1.1240 h1         1 FXV       0.101700
     41 H161        -0.8030    -4.4230    -0.3900 hc         1 FXV       0.050367
     42 H162        -2.5470    -4.2110    -0.5740 hc         1 FXV       0.050367
     43 H163        -1.4390    -3.5450    -1.7970 hc         1 FXV       0.050367
     44 H17         -2.3160    -1.1430    -1.4600 hc         1 FXV       0.078700
     45 H201        -4.1960    -2.6280    -0.8140 hc         1 FXV       0.077700
     46 H202        -4.1770    -2.0010     0.8210 hc         1 FXV       0.077700
     47 H23         -5.4700    -0.0560     1.3490 ha         1 FXV       0.138000
     48 H25         -7.3500     2.2290    -1.8260 ha         1 FXV       0.126000
     49 H26         -6.1640     0.8520    -3.5020 ha         1 FXV       0.147000
     50 H27         -4.6250    -0.9600    -2.7850 ha         1 FXV       0.142000
     51 H301        -9.0330     2.8130     1.4230 hn         1 FXV       0.379250
     52 H302        -8.9780     2.0350    -0.1190 hn         1 FXV       0.379250
     53 H311        -5.5930     2.1620     2.1460 hn         1 FXV       0.379250
     54 H312        -6.9820     3.0440     2.6740 hn         1 FXV       0.379250
     55 H341        -1.0440     2.9280    -0.7620 h1         1 FXV       0.051367
     56 H342        -2.3170     2.7290     0.4610 h1         1 FXV       0.051367
     57 H343        -0.6540     2.1880     0.8060 h1         1 FXV       0.051367
     58 C13          0.8800    -2.1410     0.9060 c          1 FXV       0.618700
     59 C29         -7.2140     2.0130     0.9120 ce         1 FXV       0.521400
     60 O33          0.6850    -2.8660     1.8720 o          1 FXV      -0.580100
@<TRIPOS>BOND
     1     1     2 ar  
     2     1     6 ar  
     3     1    31 1   
     4     2     3 ar  
     5     2    11 1   
     6     3     4 ar  
     7     3    32 1   
     8     4     5 2   
     9     4    33 1   
    10     5     6 1   
    11     5    30 1   
    12     6    34 1   
    13     7     8 ar  
    14     7    12 ar  
    15     7    35 1   
    16     8     9 ar  
    17     8    58 1   
    18     9    10 ar  
    19     9    36 1   
    20    10    11 ar  
    21    10    37 1   
    22    11    12 ar  
    23    12    38 1   
    24    13    14 1   
    25    13    39 1   
    26    13    58 1   
    27    14    15 1   
    28    14    16 1   
    29    14    40 1   
    30    15    41 1   
    31    15    42 1   
    32    15    43 1   
    33    16    17 1   
    34    16    19 1   
    35    16    44 1   
    36    17    18 1   
    37    17    28 2   
    38    18    29 1   
    39    19    25 1   
    40    19    45 1   
    41    19    46 1   
    42    20    21 ar  
    43    20    25 ar  
    44    20    47 1   
    45    21    22 ar  
    46    21    59 1   
    47    22    23 ar  
    48    22    48 1   
    49    23    24 ar  
    50    23    49 1   
    51    24    25 ar  
    52    24    50 1   
    53    26    51 1   
    54    26    52 1   
    55    26    59 2   
    56    27    53 1   
    57    27    54 1   
    58    27    59 1   
    59    29    55 1   
    60    29    56 1   
    61    29    57 1   
    62    58    60 2   
@<TRIPOS>SUBSTRUCTURE
     1 FXV         1 TEMP              0 ****  ****    0 ROOT
